Circuit: * D:\Disco D\universita\magistrale\progettazione-low-power\progetti\progetto-2\ltspice\models\seevinck\read\seevinck_read.asc

WARNING: Node NC_01 is floating.
WARNING: Node NC_02 is floating.
WARNING: Node NC_03 is floating.
WARNING: Node NC_04 is floating.
WARNING: Node NC_05 is floating.

WARNING: Less than two connections to node nc_01.  This node is used by vsweep.
WARNING: Less than two connections to node nc_02.  This node is used by e2.
WARNING: Less than two connections to node nc_03.  This node is used by e8.
WARNING: Less than two connections to node nc_04.  This node is used by m5.
WARNING: Less than two connections to node nc_05.  This node is used by m6.
Warning: Pd = 0 is less than W.
Warning: Ps = 0 is less than W.
Warning: Pd = 0 is less than W.
Warning: Ps = 0 is less than W.
Warning: Pd = 0 is less than W.
Warning: Ps = 0 is less than W.
.step w_ax=1.2e-07
.step w_ax=1.3e-07
.step w_ax=1.4e-07
.step w_ax=1.5e-07
.step w_ax=1.6e-07
.step w_ax=1.7e-07
.step w_ax=1.8e-07
.step w_ax=1.9e-07
.step w_ax=2e-07
.step w_ax=2.1e-07
.step w_ax=2.2e-07
.step w_ax=2.3e-07
.step w_ax=2.4e-07


Measurement: snm_max
  step	MAX(0.707*v(v1)-0.707*v(v2))	FROM	TO
     1	0.153497	-0.707	0.707
     2	0.145509	-0.707	0.707
     3	0.137816	-0.707	0.707
     4	0.130396	-0.707	0.707
     5	0.123232	-0.707	0.707
     6	0.116307	-0.707	0.707
     7	0.109608	-0.707	0.707
     8	0.10627	-0.707	0.707
     9	0.111278	-0.707	0.707
    10	0.11619	-0.707	0.707
    11	0.121009	-0.707	0.707
    12	0.125738	-0.707	0.707
    13	0.130381	-0.707	0.707

Measurement: snm_min
  step	MIN(0.707*v(v1)-0.707*v(v2))	FROM	TO
     1	-0.153499	-0.707	0.707
     2	-0.145491	-0.707	0.707
     3	-0.137782	-0.707	0.707
     4	-0.130373	-0.707	0.707
     5	-0.123226	-0.707	0.707
     6	-0.116317	-0.707	0.707
     7	-0.10963	-0.707	0.707
     8	-0.10627	-0.707	0.707
     9	-0.111278	-0.707	0.707
    10	-0.11619	-0.707	0.707
    11	-0.121009	-0.707	0.707
    12	-0.125738	-0.707	0.707
    13	-0.130381	-0.707	0.707

Measurement: w_ax_values
  step	w_ax
     1	1.2e-07
     2	1.3e-07
     3	1.4e-07
     4	1.5e-07
     5	1.6e-07
     6	1.7e-07
     7	1.8e-07
     8	1.9e-07
     9	2e-07
    10	2.1e-07
    11	2.2e-07
    12	2.3e-07
    13	2.4e-07


Date: Sat Dec  2 19:55:14 2023
Total elapsed time: 0.884 seconds.

tnom = 27
temp = 27
method = trap
totiter = 295
traniter = 0
tranpoints = 0
accept = 0
rejected = 0
matrix size = 33
fillins = 28
solver = Normal
Avg thread counts: 7.0/0.0/8.0/7.0
Matrix Compiler1: 2.14 KB object code size  1.2/0.7/[0.5]
Matrix Compiler2: 2.78 KB object code size  0.5/0.9/[0.2]

