Circuit: * D:\Disco D\universita\magistrale\progettazione-low-power\progetti\progetto-2\ltspice\models\standard\hold\standard_hold.asc

Warning: Pd = 0 is less than W.
Warning: Ps = 0 is less than W.
Warning: Pd = 0 is less than W.
Warning: Ps = 0 is less than W.
Warning: Pd = 0 is less than W.
Warning: Ps = 0 is less than W.
.step w_ax=1.2e-07
.step w_ax=1.3e-07
.step w_ax=1.4e-07
.step w_ax=1.5e-07
.step w_ax=1.6e-07
.step w_ax=1.7e-07
.step w_ax=1.8e-07
.step w_ax=1.9e-07
.step w_ax=2e-07
.step w_ax=2.1e-07
.step w_ax=2.2e-07
.step w_ax=2.3e-07
.step w_ax=2.4e-07


Measurement: w_ax_values
  step	w_ax
     1	1.2e-07
     2	1.3e-07
     3	1.4e-07
     4	1.5e-07
     5	1.6e-07
     6	1.7e-07
     7	1.8e-07
     8	1.9e-07
     9	2e-07
    10	2.1e-07
    11	2.2e-07
    12	2.3e-07
    13	2.4e-07


Date: Sun Nov 26 17:34:09 2023
Total elapsed time: 1.170 seconds.

tnom = 27
temp = 27
method = trap
totiter = 211
traniter = 0
tranpoints = 0
accept = 0
rejected = 0
matrix size = 11
fillins = 0
solver = Normal
Avg thread counts: 8.0/0.0/8.0/8.0
Matrix Compiler1:      26 opcodes  0.3/0.3/[0.3]
Matrix Compiler2: 797 bytes object code size  0.2/0.4/[0.2]

