WARNING: Can't resolve .param vblneg=pulse(1 0 100p 10p 10p 490p 1n)
WARNING: Can't resolve .param vbl=pulse(0 1 100p 10p 10p 490p 1n)
Questionable use of curly braces in "vbl bl 0 {vbl}"
    Error: yet unevaluated parameter in: "[vbl]"
Questionable use of curly braces in "vblneg blneg 0 {vblneg}"
    Error: yet unevaluated parameter in: "[vblneg]"
Circuit: * D:\Disco D\universita\magistrale\progettazione-low-power\progetti\progetto-2\ltspice\models\standard\hold\transient\standard_hold.asc

Error on line 9 : vbl bl 0 (vbl)
	 Unknown parameter "vbl"
Error on line 10 : vblneg blneg 0 (vblneg)
	 Unknown parameter "vblneg"
Warning: Pd = 0 is less than W.
Warning: Ps = 0 is less than W.
Warning: Pd = 0 is less than W.
Warning: Ps = 0 is less than W.
Warning: Pd = 0 is less than W.
Warning: Ps = 0 is less than W.
vbl: Missing value, assumed 0V @ DC
vblneg: Missing value, assumed 0V @ DC
Direct Newton iteration for .op point succeeded.

Date: Wed Dec  6 02:12:53 2023
Total elapsed time: 0.214 seconds.

tnom = 27
temp = 27
method = modified trap
totiter = 2166
traniter = 2157
tranpoints = 1046
accept = 1045
rejected = 1
matrix size = 10
fillins = 0
solver = Normal
Avg thread counts: 2.3/3.6/3.6/2.3
Matrix Compiler1: 346 bytes object code size  0.3/0.5/[0.2]
Matrix Compiler2: off  [0.2]/0.5/0.3

