Circuit: * D:\Disco D\universita\magistrale\progettazione-low-power\progetti\progetto-2\ltspice\models\gaussian-vth\read\gaussian_vth_read.asc

WARNING: Node NC_01 is floating.
WARNING: Node NC_02 is floating.
WARNING: Node NC_03 is floating.
WARNING: Node NC_04 is floating.
WARNING: Node NC_05 is floating.

WARNING: Less than two connections to node nc_01.  This node is used by vsweep.
WARNING: Less than two connections to node nc_02.  This node is used by e2.
WARNING: Less than two connections to node nc_03.  This node is used by e8.
WARNING: Less than two connections to node nc_04.  This node is used by m5.
WARNING: Less than two connections to node nc_05.  This node is used by m6.
Warning: Pd = 0 is less than W.
Warning: Ps = 0 is less than W.
Warning: Pd = 0 is less than W.
Warning: Ps = 0 is less than W.
Warning: Pd = 0 is less than W.
Warning: Ps = 0 is less than W.
.step run=1
.step run=2
.step run=3
.step run=4
.step run=5
.step run=6
.step run=7
.step run=8
.step run=9
.step run=10
.step run=11
.step run=12
.step run=13
.step run=14
.step run=15
.step run=16
.step run=17
.step run=18
.step run=19
.step run=20
.step run=21
.step run=22
.step run=23
.step run=24
.step run=25
.step run=26
.step run=27
.step run=28
.step run=29
.step run=30
.step run=31
.step run=32
.step run=33
.step run=34
.step run=35
.step run=36
.step run=37
.step run=38
.step run=39
.step run=40
.step run=41
.step run=42
.step run=43
.step run=44
.step run=45
.step run=46
.step run=47
.step run=48
.step run=49
.step run=50
.step run=51
.step run=52
.step run=53
.step run=54
.step run=55
.step run=56
.step run=57
.step run=58
.step run=59
.step run=60
.step run=61
.step run=62
.step run=63
.step run=64
.step run=65
.step run=66
.step run=67
.step run=68
.step run=69
.step run=70
.step run=71
.step run=72
.step run=73
.step run=74
.step run=75
.step run=76
.step run=77
.step run=78
.step run=79
.step run=80
.step run=81
.step run=82
.step run=83
.step run=84
.step run=85
.step run=86
.step run=87
.step run=88
.step run=89
.step run=90
.step run=91
.step run=92
.step run=93
.step run=94
.step run=95
.step run=96
.step run=97
.step run=98
.step run=99
.step run=100
.step run=101
.step run=102
.step run=103
.step run=104
.step run=105
.step run=106
.step run=107
.step run=108
.step run=109
.step run=110
.step run=111
.step run=112
.step run=113
.step run=114
.step run=115
.step run=116
.step run=117
.step run=118
.step run=119
.step run=120
.step run=121
.step run=122
.step run=123
.step run=124
.step run=125
.step run=126
.step run=127
.step run=128
.step run=129
.step run=130
.step run=131
.step run=132
.step run=133
.step run=134
.step run=135
.step run=136
.step run=137
.step run=138
.step run=139
.step run=140
.step run=141
.step run=142
.step run=143
.step run=144
.step run=145
.step run=146
.step run=147
.step run=148
.step run=149
.step run=150
.step run=151
.step run=152
.step run=153
.step run=154
.step run=155
.step run=156
.step run=157
.step run=158
.step run=159
.step run=160
.step run=161
.step run=162
.step run=163
.step run=164
.step run=165
.step run=166
.step run=167
.step run=168
.step run=169
.step run=170
.step run=171
.step run=172
.step run=173
.step run=174
.step run=175
.step run=176
.step run=177
.step run=178
.step run=179
.step run=180
.step run=181
.step run=182
.step run=183
.step run=184
.step run=185
.step run=186
.step run=187
.step run=188
.step run=189
.step run=190
.step run=191
.step run=192
.step run=193
.step run=194
.step run=195
.step run=196
.step run=197
.step run=198
.step run=199
.step run=200
.step run=201
.step run=202
.step run=203
.step run=204
.step run=205
.step run=206
.step run=207
.step run=208
.step run=209
.step run=210
.step run=211
.step run=212
.step run=213
.step run=214
.step run=215
.step run=216
.step run=217
.step run=218
.step run=219
.step run=220
.step run=221
.step run=222
.step run=223
.step run=224
.step run=225
.step run=226
.step run=227
.step run=228
.step run=229
.step run=230
.step run=231
.step run=232
.step run=233
.step run=234
.step run=235
.step run=236
.step run=237
.step run=238
.step run=239
.step run=240
.step run=241
.step run=242
.step run=243
.step run=244
.step run=245
.step run=246
.step run=247
.step run=248
.step run=249
.step run=250
.step run=251
.step run=252
.step run=253
.step run=254
.step run=255
.step run=256
.step run=257
.step run=258
.step run=259
.step run=260
.step run=261
.step run=262
.step run=263
.step run=264
.step run=265
.step run=266
.step run=267
.step run=268
.step run=269
.step run=270
.step run=271
.step run=272
.step run=273
.step run=274
.step run=275
.step run=276
.step run=277
.step run=278
.step run=279
.step run=280
.step run=281
.step run=282
.step run=283
.step run=284
.step run=285
.step run=286
.step run=287
.step run=288
.step run=289
.step run=290
.step run=291
.step run=292
.step run=293
.step run=294
.step run=295
.step run=296
.step run=297
.step run=298
.step run=299
.step run=300
.step run=301
.step run=302
.step run=303
.step run=304
.step run=305
.step run=306
.step run=307
.step run=308
.step run=309
.step run=310
.step run=311
.step run=312
.step run=313
.step run=314
.step run=315
.step run=316
.step run=317
.step run=318
.step run=319
.step run=320
.step run=321
.step run=322
.step run=323
.step run=324
.step run=325
.step run=326
.step run=327
.step run=328
.step run=329
.step run=330
.step run=331
.step run=332
.step run=333
.step run=334
.step run=335
.step run=336
.step run=337
.step run=338
.step run=339
.step run=340
.step run=341
.step run=342
.step run=343
.step run=344
.step run=345
.step run=346
.step run=347
.step run=348
.step run=349
.step run=350
.step run=351
.step run=352
.step run=353
.step run=354
.step run=355
.step run=356
.step run=357
.step run=358
.step run=359
.step run=360
.step run=361
.step run=362
.step run=363
.step run=364
.step run=365
.step run=366
.step run=367
.step run=368
.step run=369
.step run=370
.step run=371
.step run=372
.step run=373
.step run=374
.step run=375
.step run=376
.step run=377
.step run=378
.step run=379
.step run=380
.step run=381
.step run=382
.step run=383
.step run=384
.step run=385
.step run=386
.step run=387
.step run=388
.step run=389
.step run=390
.step run=391
.step run=392
.step run=393
.step run=394
.step run=395
.step run=396
.step run=397
.step run=398
.step run=399
.step run=400


Measurement: snm_max
  step	MAX(0.707*v(v1)-0.707*v(v2))	FROM	TO
     1	0.0198338	-0.17675	0.17675
     2	0.0331288	-0.17675	0.17675
     3	0.0118334	-0.17675	0.17675
     4	0.0347154	-0.17675	0.17675
     5	0.052695	-0.17675	0.17675
     6	0.0527604	-0.17675	0.17675
     7	0.0441375	-0.17675	0.17675
     8	0.0168742	-0.17675	0.17675
     9	0.0167175	-0.17675	0.17675
    10	0.0245164	-0.17675	0.17675
    11	0.0211466	-0.17675	0.17675
    12	0.0271404	-0.17675	0.17675
    13	0.0333019	-0.17675	0.17675
    14	0.0321154	-0.17675	0.17675
    15	0.0118879	-0.17675	0.17675
    16	0.0241998	-0.17675	0.17675
    17	0.0248708	-0.17675	0.17675
    18	0.0357212	-0.17675	0.17675
    19	0.0384565	-0.17675	0.17675
    20	0.0530585	-0.17675	0.17675
    21	0.0114515	-0.17675	0.17675
    22	0.0262251	-0.17675	0.17675
    23	0.033989	-0.17675	0.17675
    24	0.0497418	-0.17675	0.17675
    25	0.0598575	-0.17675	0.17675
    26	0.0121971	-0.17675	0.17675
    27	0.0579213	-0.17675	0.17675
    28	0.0202417	-0.17675	0.17675
    29	0.0169033	-0.17675	0.17675
    30	0.0200202	-0.17675	0.17675
    31	0.0152665	-0.17675	0.17675
    32	0.0250955	-0.17675	0.17675
    33	0.0265211	-0.17675	0.17675
    34	0.0450326	-0.17675	0.17675
    35	0.0372752	-0.17675	0.17675
    36	0.0312705	-0.17675	0.17675
    37	0.031746	-0.17675	0.17675
    38	0.0335384	-0.17675	0.17675
    39	0.0454956	-0.17675	0.17675
    40	0.0226423	-0.17675	0.17675
    41	0.0144421	-0.17675	0.17675
    42	0.0165028	-0.17675	0.17675
    43	0.0422157	-0.17675	0.17675
    44	0.0404421	-0.17675	0.17675
    45	0.0475709	-0.17675	0.17675
    46	0.0226155	-0.17675	0.17675
    47	0.020935	-0.17675	0.17675
    48	0.0406845	-0.17675	0.17675
    49	0.0347959	-0.17675	0.17675
    50	0.0225895	-0.17675	0.17675
    51	0.0450419	-0.17675	0.17675
    52	0.0450172	-0.17675	0.17675
    53	0.0230718	-0.17675	0.17675
    54	0.0426828	-0.17675	0.17675
    55	0.0458457	-0.17675	0.17675
    56	0.0623167	-0.17675	0.17675
    57	0.0327378	-0.17675	0.17675
    58	0.0432511	-0.17675	0.17675
    59	0.0205871	-0.17675	0.17675
    60	0.039855	-0.17675	0.17675
    61	0.031998	-0.17675	0.17675
    62	0.0170627	-0.17675	0.17675
    63	0.0166732	-0.17675	0.17675
    64	0.0367429	-0.17675	0.17675
    65	0.019423	-0.17675	0.17675
    66	0.0535375	-0.17675	0.17675
    67	0.0138125	-0.17675	0.17675
    68	0.0478294	-0.17675	0.17675
    69	0.0122477	-0.17675	0.17675
    70	0.0211372	-0.17675	0.17675
    71	0.0429169	-0.17675	0.17675
    72	0.0300144	-0.17675	0.17675
    73	0.0251651	-0.17675	0.17675
    74	0.026813	-0.17675	0.17675
    75	0.0309564	-0.17675	0.17675
    76	0.0353337	-0.17675	0.17675
    77	0.0350375	-0.17675	0.17675
    78	0.02103	-0.17675	0.17675
    79	0.0176563	-0.17675	0.17675
    80	0.029602	-0.17675	0.17675
    81	0.0546753	-0.17675	0.17675
    82	0.0254191	-0.17675	0.17675
    83	0.0460048	-0.17675	0.17675
    84	0.0388659	-0.17675	0.17675
    85	0.0366414	-0.17675	0.17675
    86	0.0461708	-0.17675	0.17675
    87	0.0488697	-0.17675	0.17675
    88	0.0425716	-0.17675	0.17675
    89	0.0154834	-0.17675	0.17675
    90	0.0489823	-0.17675	0.17675
    91	0.0159833	-0.17675	0.17675
    92	0.0456828	-0.17675	0.17675
    93	0.0399712	-0.17675	0.17675
    94	0.0502743	-0.17675	0.17675
    95	0.0407164	-0.17675	0.17675
    96	0.0307748	-0.17675	0.17675
    97	0.043458	-0.17675	0.17675
    98	0.0330117	-0.17675	0.17675
    99	0.0212536	-0.17675	0.17675
   100	0.0494141	-0.17675	0.17675
   101	0.0358202	-0.17675	0.17675
   102	0.0502423	-0.17675	0.17675
   103	0.0220083	-0.17675	0.17675
   104	0.0519188	-0.17675	0.17675
   105	0.0269052	-0.17675	0.17675
   106	0.0444444	-0.17675	0.17675
   107	0.0190976	-0.17675	0.17675
   108	0.0227985	-0.17675	0.17675
   109	0.0168127	-0.17675	0.17675
   110	0.0629589	-0.17675	0.17675
   111	0.013558	-0.17675	0.17675
   112	0.0261022	-0.17675	0.17675
   113	0.0353164	-0.17675	0.17675
   114	0.0316593	-0.17675	0.17675
   115	0.0330971	-0.17675	0.17675
   116	0.0661479	-0.17675	0.17675
   117	0.0349933	-0.17675	0.17675
   118	0.0366406	-0.17675	0.17675
   119	0.0625587	-0.17675	0.17675
   120	0.0169193	-0.17675	0.17675
   121	0.0365291	-0.17675	0.17675
   122	0.043634	-0.17675	0.17675
   123	0.0141497	-0.17675	0.17675
   124	0.0158664	-0.17675	0.17675
   125	0.0418291	-0.17675	0.17675
   126	0.0364207	-0.17675	0.17675
   127	0.055831	-0.17675	0.17675
   128	0.0313321	-0.17675	0.17675
   129	0.0459752	-0.17675	0.17675
   130	0.0439886	-0.17675	0.17675
   131	0.0318325	-0.17675	0.17675
   132	0.0324803	-0.17675	0.17675
   133	0.0606931	-0.17675	0.17675
   134	0.0247514	-0.17675	0.17675
   135	0.0131694	-0.17675	0.17675
   136	0.047901	-0.17675	0.17675
   137	0.0270578	-0.17675	0.17675
   138	0.027525	-0.17675	0.17675
   139	0.0129258	-0.17675	0.17675
   140	0.05611	-0.17675	0.17675
   141	0.0121846	-0.17675	0.17675
   142	0.056572	-0.17675	0.17675
   143	0.0394325	-0.17675	0.17675
   144	0.0218328	-0.17675	0.17675
   145	0.057545	-0.17675	0.17675
   146	0.0177206	-0.17675	0.17675
   147	0.0467597	-0.17675	0.17675
   148	0.0415408	-0.17675	0.17675
   149	0.0425204	-0.17675	0.17675
   150	0.0194926	-0.17675	0.17675
   151	0.0383653	-0.17675	0.17675
   152	0.0422972	-0.17675	0.17675
   153	0.0240028	-0.17675	0.17675
   154	0.0541936	-0.17675	0.17675
   155	0.041642	-0.17675	0.17675
   156	0.0346629	-0.17675	0.17675
   157	0.0262729	-0.17675	0.17675
   158	0.0306088	-0.17675	0.17675
   159	0.0422332	-0.17675	0.17675
   160	0.0388751	-0.17675	0.17675
   161	0.0556539	-0.17675	0.17675
   162	0.0196298	-0.17675	0.17675
   163	0.0275166	-0.17675	0.17675
   164	0.0146735	-0.17675	0.17675
   165	0.052452	-0.17675	0.17675
   166	0.0434379	-0.17675	0.17675
   167	0.0192749	-0.17675	0.17675
   168	0.0417969	-0.17675	0.17675
   169	0.047316	-0.17675	0.17675
   170	0.0322506	-0.17675	0.17675
   171	0.0273349	-0.17675	0.17675
   172	0.0296348	-0.17675	0.17675
   173	0.0254162	-0.17675	0.17675
   174	0.0315712	-0.17675	0.17675
   175	0.0187842	-0.17675	0.17675
   176	0.0539075	-0.17675	0.17675
   177	0.0256593	-0.17675	0.17675
   178	0.028562	-0.17675	0.17675
   179	0.0355578	-0.17675	0.17675
   180	0.0269443	-0.17675	0.17675
   181	0.0332683	-0.17675	0.17675
   182	0.0351351	-0.17675	0.17675
   183	0.049415	-0.17675	0.17675
   184	0.0372187	-0.17675	0.17675
   185	0.0123738	-0.17675	0.17675
   186	0.0233196	-0.17675	0.17675
   187	0.0248765	-0.17675	0.17675
   188	0.036911	-0.17675	0.17675
   189	0.062122	-0.17675	0.17675
   190	0.0206049	-0.17675	0.17675
   191	0.0357313	-0.17675	0.17675
   192	0.0185936	-0.17675	0.17675
   193	0.0521349	-0.17675	0.17675
   194	0.0127176	-0.17675	0.17675
   195	0.0425838	-0.17675	0.17675
   196	0.0324552	-0.17675	0.17675
   197	0.0124216	-0.17675	0.17675
   198	0.0398107	-0.17675	0.17675
   199	0.0251516	-0.17675	0.17675
   200	0.0475624	-0.17675	0.17675
   201	0.0417557	-0.17675	0.17675
   202	0.0276544	-0.17675	0.17675
   203	0.0547052	-0.17675	0.17675
   204	0.0302828	-0.17675	0.17675
   205	0.0377863	-0.17675	0.17675
   206	0.0646707	-0.17675	0.17675
   207	0.0464672	-0.17675	0.17675
   208	0.0366319	-0.17675	0.17675
   209	0.0490022	-0.17675	0.17675
   210	0.0376588	-0.17675	0.17675
   211	0.0501321	-0.17675	0.17675
   212	0.0420675	-0.17675	0.17675
   213	0.0472932	-0.17675	0.17675
   214	0.056916	-0.17675	0.17675
   215	0.0315311	-0.17675	0.17675
   216	0.0191686	-0.17675	0.17675
   217	0.0117282	-0.17675	0.17675
   218	0.0490546	-0.17675	0.17675
   219	0.0215873	-0.17675	0.17675
   220	0.0578175	-0.17675	0.17675
   221	0.0279991	-0.17675	0.17675
   222	0.0579762	-0.17675	0.17675
   223	0.0282816	-0.17675	0.17675
   224	0.0457901	-0.17675	0.17675
   225	0.0181004	-0.17675	0.17675
   226	0.0145947	-0.17675	0.17675
   227	0.0236548	-0.17675	0.17675
   228	0.0221576	-0.17675	0.17675
   229	0.0229833	-0.17675	0.17675
   230	0.0140874	-0.17675	0.17675
   231	0.0226429	-0.17675	0.17675
   232	0.023144	-0.17675	0.17675
   233	0.0249895	-0.17675	0.17675
   234	0.0316022	-0.17675	0.17675
   235	0.0426763	-0.17675	0.17675
   236	0.0402893	-0.17675	0.17675
   237	0.0169312	-0.17675	0.17675
   238	0.0278093	-0.17675	0.17675
   239	0.0233572	-0.17675	0.17675
   240	0.0320496	-0.17675	0.17675
   241	0.044796	-0.17675	0.17675
   242	0.0507674	-0.17675	0.17675
   243	0.0348047	-0.17675	0.17675
   244	0.0198956	-0.17675	0.17675
   245	0.0610044	-0.17675	0.17675
   246	0.0295852	-0.17675	0.17675
   247	0.0440815	-0.17675	0.17675
   248	0.0464713	-0.17675	0.17675
   249	0.0630908	-0.17675	0.17675
   250	0.0491168	-0.17675	0.17675
   251	0.0657787	-0.17675	0.17675
   252	0.0354656	-0.17675	0.17675
   253	0.0352253	-0.17675	0.17675
   254	0.0258142	-0.17675	0.17675
   255	0.0320443	-0.17675	0.17675
   256	0.0218412	-0.17675	0.17675
   257	0.0196703	-0.17675	0.17675
   258	0.030559	-0.17675	0.17675
   259	0.0279327	-0.17675	0.17675
   260	0.038661	-0.17675	0.17675
   261	0.0294196	-0.17675	0.17675
   262	0.0527637	-0.17675	0.17675
   263	0.040637	-0.17675	0.17675
   264	0.0455854	-0.17675	0.17675
   265	0.0152296	-0.17675	0.17675
   266	0.0230732	-0.17675	0.17675
   267	0.017599	-0.17675	0.17675
   268	0.037617	-0.17675	0.17675
   269	0.0365001	-0.17675	0.17675
   270	0.0130337	-0.17675	0.17675
   271	0.0575733	-0.17675	0.17675
   272	0.059121	-0.17675	0.17675
   273	0.0332635	-0.17675	0.17675
   274	0.034399	-0.17675	0.17675
   275	0.0450159	-0.17675	0.17675
   276	0.0199095	-0.17675	0.17675
   277	0.0208343	-0.17675	0.17675
   278	0.0370945	-0.17675	0.17675
   279	0.030524	-0.17675	0.17675
   280	0.0413132	-0.17675	0.17675
   281	0.0415381	-0.17675	0.17675
   282	0.0375131	-0.17675	0.17675
   283	0.0223863	-0.17675	0.17675
   284	0.043207	-0.17675	0.17675
   285	0.0329706	-0.17675	0.17675
   286	0.0424576	-0.17675	0.17675
   287	0.0295428	-0.17675	0.17675
   288	0.0346824	-0.17675	0.17675
   289	0.0314904	-0.17675	0.17675
   290	0.0435391	-0.17675	0.17675
   291	0.021361	-0.17675	0.17675
   292	0.0222297	-0.17675	0.17675
   293	0.0176859	-0.17675	0.17675
   294	0.0372886	-0.17675	0.17675
   295	0.0248282	-0.17675	0.17675
   296	0.0403075	-0.17675	0.17675
   297	0.0666022	-0.17675	0.17675
   298	0.0352547	-0.17675	0.17675
   299	0.0651285	-0.17675	0.17675
   300	0.0158438	-0.17675	0.17675
   301	0.036537	-0.17675	0.17675
   302	0.0153381	-0.17675	0.17675
   303	0.0266646	-0.17675	0.17675
   304	0.0234465	-0.17675	0.17675
   305	0.015627	-0.17675	0.17675
   306	0.0154119	-0.17675	0.17675
   307	0.0258327	-0.17675	0.17675
   308	0.0272986	-0.17675	0.17675
   309	0.0430588	-0.17675	0.17675
   310	0.0309646	-0.17675	0.17675
   311	0.0267872	-0.17675	0.17675
   312	0.0405131	-0.17675	0.17675
   313	0.0471791	-0.17675	0.17675
   314	0.06039	-0.17675	0.17675
   315	0.0351212	-0.17675	0.17675
   316	0.0358809	-0.17675	0.17675
   317	0.0134212	-0.17675	0.17675
   318	0.037013	-0.17675	0.17675
   319	0.0279376	-0.17675	0.17675
   320	0.0169233	-0.17675	0.17675
   321	0.0125854	-0.17675	0.17675
   322	0.0554023	-0.17675	0.17675
   323	0.033926	-0.17675	0.17675
   324	0.0297207	-0.17675	0.17675
   325	0.0404576	-0.17675	0.17675
   326	0.0203169	-0.17675	0.17675
   327	0.0618145	-0.17675	0.17675
   328	0.0638019	-0.17675	0.17675
   329	0.0512062	-0.17675	0.17675
   330	0.0520211	-0.17675	0.17675
   331	0.0305608	-0.17675	0.17675
   332	0.0256687	-0.17675	0.17675
   333	0.0451734	-0.17675	0.17675
   334	0.0485681	-0.17675	0.17675
   335	0.0436202	-0.17675	0.17675
   336	0.0435782	-0.17675	0.17675
   337	0.0185067	-0.17675	0.17675
   338	0.0233624	-0.17675	0.17675
   339	0.0152683	-0.17675	0.17675
   340	0.0127813	-0.17675	0.17675
   341	0.0509485	-0.17675	0.17675
   342	0.0213013	-0.17675	0.17675
   343	0.0344442	-0.17675	0.17675
   344	0.0254685	-0.17675	0.17675
   345	0.0185416	-0.17675	0.17675
   346	0.0589139	-0.17675	0.17675
   347	0.0327107	-0.17675	0.17675
   348	0.0667854	-0.17675	0.17675
   349	0.0242001	-0.17675	0.17675
   350	0.0457408	-0.17675	0.17675
   351	0.0497263	-0.17675	0.17675
   352	0.0288675	-0.17675	0.17675
   353	0.0443061	-0.17675	0.17675
   354	0.0396417	-0.17675	0.17675
   355	0.0453847	-0.17675	0.17675
   356	0.0322781	-0.17675	0.17675
   357	0.0588223	-0.17675	0.17675
   358	0.0620935	-0.17675	0.17675
   359	0.0465854	-0.17675	0.17675
   360	0.0364882	-0.17675	0.17675
   361	0.0230412	-0.17675	0.17675
   362	0.0204061	-0.17675	0.17675
   363	0.0218265	-0.17675	0.17675
   364	0.0277126	-0.17675	0.17675
   365	0.0135516	-0.17675	0.17675
   366	0.0130274	-0.17675	0.17675
   367	0.0456498	-0.17675	0.17675
   368	0.0522509	-0.17675	0.17675
   369	0.0568604	-0.17675	0.17675
   370	0.0257544	-0.17675	0.17675
   371	0.032072	-0.17675	0.17675
   372	0.0347931	-0.17675	0.17675
   373	0.016146	-0.17675	0.17675
   374	0.0289526	-0.17675	0.17675
   375	0.0640248	-0.17675	0.17675
   376	0.0279518	-0.17675	0.17675
   377	0.0645213	-0.17675	0.17675
   378	0.0359596	-0.17675	0.17675
   379	0.0258208	-0.17675	0.17675
   380	0.0468091	-0.17675	0.17675
   381	0.0397556	-0.17675	0.17675
   382	0.0158995	-0.17675	0.17675
   383	0.0137937	-0.17675	0.17675
   384	0.0563961	-0.17675	0.17675
   385	0.0650553	-0.17675	0.17675
   386	0.0251829	-0.17675	0.17675
   387	0.0552187	-0.17675	0.17675
   388	0.0444078	-0.17675	0.17675
   389	0.0200839	-0.17675	0.17675
   390	0.0388519	-0.17675	0.17675
   391	0.021783	-0.17675	0.17675
   392	0.0639129	-0.17675	0.17675
   393	0.0253585	-0.17675	0.17675
   394	0.0506544	-0.17675	0.17675
   395	0.0418498	-0.17675	0.17675
   396	0.0201805	-0.17675	0.17675
   397	0.0385688	-0.17675	0.17675
   398	0.032809	-0.17675	0.17675
   399	0.0304544	-0.17675	0.17675
   400	0.013319	-0.17675	0.17675

Measurement: snm_min
  step	MIN(0.707*v(v1)-0.707*v(v2))	FROM	TO
     1	-0.0198311	-0.17675	0.17675
     2	-0.0331034	-0.17675	0.17675
     3	-0.0118573	-0.17675	0.17675
     4	-0.0348657	-0.17675	0.17675
     5	-0.0524665	-0.17675	0.17675
     6	-0.052561	-0.17675	0.17675
     7	-0.0441179	-0.17675	0.17675
     8	-0.0168717	-0.17675	0.17675
     9	-0.0167859	-0.17675	0.17675
    10	-0.0245825	-0.17675	0.17675
    11	-0.0211443	-0.17675	0.17675
    12	-0.026986	-0.17675	0.17675
    13	-0.033497	-0.17675	0.17675
    14	-0.0320388	-0.17675	0.17675
    15	-0.0118834	-0.17675	0.17675
    16	-0.0242554	-0.17675	0.17675
    17	-0.0250798	-0.17675	0.17675
    18	-0.0358825	-0.17675	0.17675
    19	-0.0384953	-0.17675	0.17675
    20	-0.0528771	-0.17675	0.17675
    21	-0.0114467	-0.17675	0.17675
    22	-0.0260357	-0.17675	0.17675
    23	-0.0341342	-0.17675	0.17675
    24	-0.0497175	-0.17675	0.17675
    25	-0.0600381	-0.17675	0.17675
    26	-0.0121924	-0.17675	0.17675
    27	-0.0580608	-0.17675	0.17675
    28	-0.0202394	-0.17675	0.17675
    29	-0.0168608	-0.17675	0.17675
    30	-0.019999	-0.17675	0.17675
    31	-0.0151518	-0.17675	0.17675
    32	-0.0250419	-0.17675	0.17675
    33	-0.026565	-0.17675	0.17675
    34	-0.0450552	-0.17675	0.17675
    35	-0.0371203	-0.17675	0.17675
    36	-0.0311583	-0.17675	0.17675
    37	-0.0317864	-0.17675	0.17675
    38	-0.0336294	-0.17675	0.17675
    39	-0.0455938	-0.17675	0.17675
    40	-0.0227273	-0.17675	0.17675
    41	-0.0144384	-0.17675	0.17675
    42	-0.0163414	-0.17675	0.17675
    43	-0.0420486	-0.17675	0.17675
    44	-0.0402986	-0.17675	0.17675
    45	-0.047777	-0.17675	0.17675
    46	-0.0227978	-0.17675	0.17675
    47	-0.0209447	-0.17675	0.17675
    48	-0.0408245	-0.17675	0.17675
    49	-0.0348938	-0.17675	0.17675
    50	-0.0225877	-0.17675	0.17675
    51	-0.0450272	-0.17675	0.17675
    52	-0.0449962	-0.17675	0.17675
    53	-0.0231074	-0.17675	0.17675
    54	-0.042517	-0.17675	0.17675
    55	-0.0458774	-0.17675	0.17675
    56	-0.0622009	-0.17675	0.17675
    57	-0.0326988	-0.17675	0.17675
    58	-0.0431169	-0.17675	0.17675
    59	-0.0204698	-0.17675	0.17675
    60	-0.0396645	-0.17675	0.17675
    61	-0.0319253	-0.17675	0.17675
    62	-0.0169545	-0.17675	0.17675
    63	-0.0166698	-0.17675	0.17675
    64	-0.0367152	-0.17675	0.17675
    65	-0.0195296	-0.17675	0.17675
    66	-0.0533493	-0.17675	0.17675
    67	-0.0137514	-0.17675	0.17675
    68	-0.0480538	-0.17675	0.17675
    69	-0.01222	-0.17675	0.17675
    70	-0.0211351	-0.17675	0.17675
    71	-0.0428954	-0.17675	0.17675
    72	-0.0298663	-0.17675	0.17675
    73	-0.025304	-0.17675	0.17675
    74	-0.0268897	-0.17675	0.17675
    75	-0.0310977	-0.17675	0.17675
    76	-0.0354386	-0.17675	0.17675
    77	-0.0351707	-0.17675	0.17675
    78	-0.0209614	-0.17675	0.17675
    79	-0.0176535	-0.17675	0.17675
    80	-0.0295439	-0.17675	0.17675
    81	-0.0545742	-0.17675	0.17675
    82	-0.0255936	-0.17675	0.17675
    83	-0.0460773	-0.17675	0.17675
    84	-0.0388693	-0.17675	0.17675
    85	-0.0367603	-0.17675	0.17675
    86	-0.0462459	-0.17675	0.17675
    87	-0.0490739	-0.17675	0.17675
    88	-0.0424212	-0.17675	0.17675
    89	-0.0154803	-0.17675	0.17675
    90	-0.0491528	-0.17675	0.17675
    91	-0.0160148	-0.17675	0.17675
    92	-0.0457548	-0.17675	0.17675
    93	-0.0399338	-0.17675	0.17675
    94	-0.0502508	-0.17675	0.17675
    95	-0.0406207	-0.17675	0.17675
    96	-0.0307787	-0.17675	0.17675
    97	-0.0433711	-0.17675	0.17675
    98	-0.0331067	-0.17675	0.17675
    99	-0.0213427	-0.17675	0.17675
   100	-0.0493807	-0.17675	0.17675
   101	-0.0359267	-0.17675	0.17675
   102	-0.05024	-0.17675	0.17675
   103	-0.0221295	-0.17675	0.17675
   104	-0.0517001	-0.17675	0.17675
   105	-0.0268596	-0.17675	0.17675
   106	-0.0445495	-0.17675	0.17675
   107	-0.0191565	-0.17675	0.17675
   108	-0.0228949	-0.17675	0.17675
   109	-0.0168089	-0.17675	0.17675
   110	-0.062782	-0.17675	0.17675
   111	-0.0135552	-0.17675	0.17675
   112	-0.0261011	-0.17675	0.17675
   113	-0.0354788	-0.17675	0.17675
   114	-0.0315751	-0.17675	0.17675
   115	-0.033081	-0.17675	0.17675
   116	-0.0660658	-0.17675	0.17675
   117	-0.0350566	-0.17675	0.17675
   118	-0.0366544	-0.17675	0.17675
   119	-0.0623661	-0.17675	0.17675
   120	-0.0169156	-0.17675	0.17675
   121	-0.0366974	-0.17675	0.17675
   122	-0.0436368	-0.17675	0.17675
   123	-0.0140785	-0.17675	0.17675
   124	-0.0156986	-0.17675	0.17675
   125	-0.041645	-0.17675	0.17675
   126	-0.036577	-0.17675	0.17675
   127	-0.0558045	-0.17675	0.17675
   128	-0.0312955	-0.17675	0.17675
   129	-0.0460227	-0.17675	0.17675
   130	-0.0439651	-0.17675	0.17675
   131	-0.0319759	-0.17675	0.17675
   132	-0.0324987	-0.17675	0.17675
   133	-0.0608141	-0.17675	0.17675
   134	-0.0249144	-0.17675	0.17675
   135	-0.0130493	-0.17675	0.17675
   136	-0.0480716	-0.17675	0.17675
   137	-0.026984	-0.17675	0.17675
   138	-0.0275341	-0.17675	0.17675
   139	-0.012923	-0.17675	0.17675
   140	-0.0561102	-0.17675	0.17675
   141	-0.0121799	-0.17675	0.17675
   142	-0.0565856	-0.17675	0.17675
   143	-0.0394766	-0.17675	0.17675
   144	-0.0219197	-0.17675	0.17675
   145	-0.0576611	-0.17675	0.17675
   146	-0.0177174	-0.17675	0.17675
   147	-0.0469213	-0.17675	0.17675
   148	-0.0413208	-0.17675	0.17675
   149	-0.0424237	-0.17675	0.17675
   150	-0.0194981	-0.17675	0.17675
   151	-0.0384949	-0.17675	0.17675
   152	-0.0421137	-0.17675	0.17675
   153	-0.0241925	-0.17675	0.17675
   154	-0.054056	-0.17675	0.17675
   155	-0.041515	-0.17675	0.17675
   156	-0.0347929	-0.17675	0.17675
   157	-0.0261564	-0.17675	0.17675
   158	-0.0305484	-0.17675	0.17675
   159	-0.0420499	-0.17675	0.17675
   160	-0.0388785	-0.17675	0.17675
   161	-0.0556162	-0.17675	0.17675
   162	-0.0197593	-0.17675	0.17675
   163	-0.0275066	-0.17675	0.17675
   164	-0.0146699	-0.17675	0.17675
   165	-0.0522492	-0.17675	0.17675
   166	-0.0433368	-0.17675	0.17675
   167	-0.0192721	-0.17675	0.17675
   168	-0.0415954	-0.17675	0.17675
   169	-0.047316	-0.17675	0.17675
   170	-0.0323474	-0.17675	0.17675
   171	-0.027136	-0.17675	0.17675
   172	-0.0295101	-0.17675	0.17675
   173	-0.0253493	-0.17675	0.17675
   174	-0.0317339	-0.17675	0.17675
   175	-0.018883	-0.17675	0.17675
   176	-0.0536826	-0.17675	0.17675
   177	-0.0254764	-0.17675	0.17675
   178	-0.0284054	-0.17675	0.17675
   179	-0.0356535	-0.17675	0.17675
   180	-0.0267938	-0.17675	0.17675
   181	-0.0332659	-0.17675	0.17675
   182	-0.0353421	-0.17675	0.17675
   183	-0.0494707	-0.17675	0.17675
   184	-0.0373964	-0.17675	0.17675
   185	-0.0122345	-0.17675	0.17675
   186	-0.0232092	-0.17675	0.17675
   187	-0.0247931	-0.17675	0.17675
   188	-0.0371258	-0.17675	0.17675
   189	-0.0618429	-0.17675	0.17675
   190	-0.0207844	-0.17675	0.17675
   191	-0.0358418	-0.17675	0.17675
   192	-0.0186345	-0.17675	0.17675
   193	-0.0519538	-0.17675	0.17675
   194	-0.0125725	-0.17675	0.17675
   195	-0.0424695	-0.17675	0.17675
   196	-0.0324606	-0.17675	0.17675
   197	-0.0123232	-0.17675	0.17675
   198	-0.0397113	-0.17675	0.17675
   199	-0.0251825	-0.17675	0.17675
   200	-0.0477416	-0.17675	0.17675
   201	-0.0416759	-0.17675	0.17675
   202	-0.0275772	-0.17675	0.17675
   203	-0.0546071	-0.17675	0.17675
   204	-0.0302831	-0.17675	0.17675
   205	-0.0379574	-0.17675	0.17675
   206	-0.0644197	-0.17675	0.17675
   207	-0.0466795	-0.17675	0.17675
   208	-0.0368383	-0.17675	0.17675
   209	-0.0491978	-0.17675	0.17675
   210	-0.0377703	-0.17675	0.17675
   211	-0.0501487	-0.17675	0.17675
   212	-0.0419323	-0.17675	0.17675
   213	-0.0474452	-0.17675	0.17675
   214	-0.056987	-0.17675	0.17675
   215	-0.0315076	-0.17675	0.17675
   216	-0.0190976	-0.17675	0.17675
   217	-0.0117242	-0.17675	0.17675
   218	-0.0491147	-0.17675	0.17675
   219	-0.0216868	-0.17675	0.17675
   220	-0.0579488	-0.17675	0.17675
   221	-0.0279957	-0.17675	0.17675
   222	-0.0580959	-0.17675	0.17675
   223	-0.0284015	-0.17675	0.17675
   224	-0.0458334	-0.17675	0.17675
   225	-0.0180661	-0.17675	0.17675
   226	-0.0145898	-0.17675	0.17675
   227	-0.0234793	-0.17675	0.17675
   228	-0.0222871	-0.17675	0.17675
   229	-0.0230261	-0.17675	0.17675
   230	-0.0140845	-0.17675	0.17675
   231	-0.0228335	-0.17675	0.17675
   232	-0.0233087	-0.17675	0.17675
   233	-0.0251266	-0.17675	0.17675
   234	-0.031652	-0.17675	0.17675
   235	-0.0425339	-0.17675	0.17675
   236	-0.0402893	-0.17675	0.17675
   237	-0.0169281	-0.17675	0.17675
   238	-0.0276825	-0.17675	0.17675
   239	-0.0235044	-0.17675	0.17675
   240	-0.032026	-0.17675	0.17675
   241	-0.0448012	-0.17675	0.17675
   242	-0.0507417	-0.17675	0.17675
   243	-0.0348719	-0.17675	0.17675
   244	-0.0199714	-0.17675	0.17675
   245	-0.061082	-0.17675	0.17675
   246	-0.0295664	-0.17675	0.17675
   247	-0.044069	-0.17675	0.17675
   248	-0.0465794	-0.17675	0.17675
   249	-0.0628507	-0.17675	0.17675
   250	-0.0493007	-0.17675	0.17675
   251	-0.0656673	-0.17675	0.17675
   252	-0.0356283	-0.17675	0.17675
   253	-0.0354145	-0.17675	0.17675
   254	-0.0256992	-0.17675	0.17675
   255	-0.0319959	-0.17675	0.17675
   256	-0.0219469	-0.17675	0.17675
   257	-0.0196679	-0.17675	0.17675
   258	-0.030601	-0.17675	0.17675
   259	-0.0278728	-0.17675	0.17675
   260	-0.0387369	-0.17675	0.17675
   261	-0.029309	-0.17675	0.17675
   262	-0.052539	-0.17675	0.17675
   263	-0.0405518	-0.17675	0.17675
   264	-0.045709	-0.17675	0.17675
   265	-0.0152272	-0.17675	0.17675
   266	-0.0231626	-0.17675	0.17675
   267	-0.0175739	-0.17675	0.17675
   268	-0.0375133	-0.17675	0.17675
   269	-0.0366421	-0.17675	0.17675
   270	-0.0130103	-0.17675	0.17675
   271	-0.0576622	-0.17675	0.17675
   272	-0.0593504	-0.17675	0.17675
   273	-0.0332175	-0.17675	0.17675
   274	-0.0345738	-0.17675	0.17675
   275	-0.0450222	-0.17675	0.17675
   276	-0.0199069	-0.17675	0.17675
   277	-0.0209257	-0.17675	0.17675
   278	-0.0370624	-0.17675	0.17675
   279	-0.0305651	-0.17675	0.17675
   280	-0.041119	-0.17675	0.17675
   281	-0.0413279	-0.17675	0.17675
   282	-0.0376871	-0.17675	0.17675
   283	-0.0225712	-0.17675	0.17675
   284	-0.0431686	-0.17675	0.17675
   285	-0.033086	-0.17675	0.17675
   286	-0.0423542	-0.17675	0.17675
   287	-0.0293778	-0.17675	0.17675
   288	-0.0345145	-0.17675	0.17675
   289	-0.0314387	-0.17675	0.17675
   290	-0.0434487	-0.17675	0.17675
   291	-0.0212241	-0.17675	0.17675
   292	-0.0220552	-0.17675	0.17675
   293	-0.0176704	-0.17675	0.17675
   294	-0.0374278	-0.17675	0.17675
   295	-0.0248391	-0.17675	0.17675
   296	-0.0402558	-0.17675	0.17675
   297	-0.0665506	-0.17675	0.17675
   298	-0.0354634	-0.17675	0.17675
   299	-0.0649298	-0.17675	0.17675
   300	-0.0158557	-0.17675	0.17675
   301	-0.0367387	-0.17675	0.17675
   302	-0.0153355	-0.17675	0.17675
   303	-0.026543	-0.17675	0.17675
   304	-0.0236241	-0.17675	0.17675
   305	-0.0156249	-0.17675	0.17675
   306	-0.015304	-0.17675	0.17675
   307	-0.0257677	-0.17675	0.17675
   308	-0.0272759	-0.17675	0.17675
   309	-0.0430091	-0.17675	0.17675
   310	-0.0308902	-0.17675	0.17675
   311	-0.0266717	-0.17675	0.17675
   312	-0.0403646	-0.17675	0.17675
   313	-0.0473134	-0.17675	0.17675
   314	-0.0605523	-0.17675	0.17675
   315	-0.0352219	-0.17675	0.17675
   316	-0.0360676	-0.17675	0.17675
   317	-0.0134177	-0.17675	0.17675
   318	-0.037106	-0.17675	0.17675
   319	-0.0279367	-0.17675	0.17675
   320	-0.0169184	-0.17675	0.17675
   321	-0.0125984	-0.17675	0.17675
   322	-0.0554146	-0.17675	0.17675
   323	-0.0340845	-0.17675	0.17675
   324	-0.0295613	-0.17675	0.17675
   325	-0.0403733	-0.17675	0.17675
   326	-0.0203839	-0.17675	0.17675
   327	-0.0618006	-0.17675	0.17675
   328	-0.0634984	-0.17675	0.17675
   329	-0.0511395	-0.17675	0.17675
   330	-0.0518489	-0.17675	0.17675
   331	-0.0305128	-0.17675	0.17675
   332	-0.0255897	-0.17675	0.17675
   333	-0.0453174	-0.17675	0.17675
   334	-0.0486287	-0.17675	0.17675
   335	-0.0435058	-0.17675	0.17675
   336	-0.0435042	-0.17675	0.17675
   337	-0.0183763	-0.17675	0.17675
   338	-0.0233062	-0.17675	0.17675
   339	-0.0152659	-0.17675	0.17675
   340	-0.0127765	-0.17675	0.17675
   341	-0.0509119	-0.17675	0.17675
   342	-0.0213617	-0.17675	0.17675
   343	-0.0345436	-0.17675	0.17675
   344	-0.0255518	-0.17675	0.17675
   345	-0.0186186	-0.17675	0.17675
   346	-0.0591603	-0.17675	0.17675
   347	-0.0326723	-0.17675	0.17675
   348	-0.0668598	-0.17675	0.17675
   349	-0.0241986	-0.17675	0.17675
   350	-0.045923	-0.17675	0.17675
   351	-0.049724	-0.17675	0.17675
   352	-0.0288001	-0.17675	0.17675
   353	-0.0442719	-0.17675	0.17675
   354	-0.0395119	-0.17675	0.17675
   355	-0.0455281	-0.17675	0.17675
   356	-0.0324654	-0.17675	0.17675
   357	-0.0590674	-0.17675	0.17675
   358	-0.0620417	-0.17675	0.17675
   359	-0.0466821	-0.17675	0.17675
   360	-0.0365734	-0.17675	0.17675
   361	-0.02304	-0.17675	0.17675
   362	-0.0205548	-0.17675	0.17675
   363	-0.0219204	-0.17675	0.17675
   364	-0.0277053	-0.17675	0.17675
   365	-0.0135474	-0.17675	0.17675
   366	-0.0129002	-0.17675	0.17675
   367	-0.0457102	-0.17675	0.17675
   368	-0.0520442	-0.17675	0.17675
   369	-0.0569235	-0.17675	0.17675
   370	-0.0256746	-0.17675	0.17675
   371	-0.0322472	-0.17675	0.17675
   372	-0.0349357	-0.17675	0.17675
   373	-0.0161429	-0.17675	0.17675
   374	-0.0288418	-0.17675	0.17675
   375	-0.0637736	-0.17675	0.17675
   376	-0.0277892	-0.17675	0.17675
   377	-0.0642793	-0.17675	0.17675
   378	-0.0361075	-0.17675	0.17675
   379	-0.0258195	-0.17675	0.17675
   380	-0.0469558	-0.17675	0.17675
   381	-0.0397562	-0.17675	0.17675
   382	-0.0158966	-0.17675	0.17675
   383	-0.013844	-0.17675	0.17675
   384	-0.0565098	-0.17675	0.17675
   385	-0.0648225	-0.17675	0.17675
   386	-0.0251672	-0.17675	0.17675
   387	-0.0551599	-0.17675	0.17675
   388	-0.0443487	-0.17675	0.17675
   389	-0.0201916	-0.17675	0.17675
   390	-0.0389191	-0.17675	0.17675
   391	-0.0217817	-0.17675	0.17675
   392	-0.0636284	-0.17675	0.17675
   393	-0.0251921	-0.17675	0.17675
   394	-0.0504521	-0.17675	0.17675
   395	-0.0416484	-0.17675	0.17675
   396	-0.0201908	-0.17675	0.17675
   397	-0.0387144	-0.17675	0.17675
   398	-0.0328707	-0.17675	0.17675
   399	-0.0303762	-0.17675	0.17675
   400	-0.0133156	-0.17675	0.17675


Date: Sun Dec 10 16:40:44 2023
Total elapsed time: 15.663 seconds.

tnom = 27
temp = 27
method = trap
totiter = 87
traniter = 0
tranpoints = 0
accept = 0
rejected = 0
matrix size = 33
fillins = 28
solver = Normal
Avg thread counts: 8.0/0.0/8.0/8.0
Matrix Compiler1: off
Matrix Compiler2: 2.78 KB object code size
