Circuit: * D:\Disco D\universita\magistrale\progettazione-low-power\progetti\progetto-2\ltspice\models\gaussian-vth\read\gaussian_vth_read.asc

WARNING: Node NC_01 is floating.
WARNING: Node NC_02 is floating.
WARNING: Node NC_03 is floating.
WARNING: Node NC_04 is floating.
WARNING: Node NC_05 is floating.

WARNING: Less than two connections to node nc_01.  This node is used by vsweep.
WARNING: Less than two connections to node nc_02.  This node is used by e2.
WARNING: Less than two connections to node nc_03.  This node is used by e8.
WARNING: Less than two connections to node nc_04.  This node is used by m5.
WARNING: Less than two connections to node nc_05.  This node is used by m6.
Warning: Pd = 0 is less than W.
Warning: Ps = 0 is less than W.
Warning: Pd = 0 is less than W.
Warning: Ps = 0 is less than W.
Warning: Pd = 0 is less than W.
Warning: Ps = 0 is less than W.
.step run=1
.step run=2
.step run=3
.step run=4
.step run=5
.step run=6
.step run=7
.step run=8
.step run=9
.step run=10
.step run=11
.step run=12
.step run=13
.step run=14
.step run=15
.step run=16
.step run=17
.step run=18
.step run=19
.step run=20
.step run=21
.step run=22
.step run=23
.step run=24
.step run=25
.step run=26
.step run=27
.step run=28
.step run=29
.step run=30
.step run=31
.step run=32
.step run=33
.step run=34
.step run=35
.step run=36
.step run=37
.step run=38
.step run=39
.step run=40
.step run=41
.step run=42
.step run=43
.step run=44
.step run=45
.step run=46
.step run=47
.step run=48
.step run=49
.step run=50
.step run=51
.step run=52
.step run=53
.step run=54
.step run=55
.step run=56
.step run=57
.step run=58
.step run=59
.step run=60
.step run=61
.step run=62
.step run=63
.step run=64
.step run=65
.step run=66
.step run=67
.step run=68
.step run=69
.step run=70
.step run=71
.step run=72
.step run=73
.step run=74
.step run=75
.step run=76
.step run=77
.step run=78
.step run=79
.step run=80
.step run=81
.step run=82
.step run=83
.step run=84
.step run=85
.step run=86
.step run=87
.step run=88
.step run=89
.step run=90
.step run=91
.step run=92
.step run=93
.step run=94
.step run=95
.step run=96
.step run=97
.step run=98
.step run=99
.step run=100
.step run=101
.step run=102
.step run=103
.step run=104
.step run=105
.step run=106
.step run=107
.step run=108
.step run=109
.step run=110
.step run=111
.step run=112
.step run=113
.step run=114
.step run=115
.step run=116
.step run=117
.step run=118
.step run=119
.step run=120
.step run=121
.step run=122
.step run=123
.step run=124
.step run=125
.step run=126
.step run=127
.step run=128
.step run=129
.step run=130
.step run=131
.step run=132
.step run=133
.step run=134
.step run=135
.step run=136
.step run=137
.step run=138
.step run=139
.step run=140
.step run=141
.step run=142
.step run=143
.step run=144
.step run=145
.step run=146
.step run=147
.step run=148
.step run=149
.step run=150
.step run=151
.step run=152
.step run=153
.step run=154
.step run=155
.step run=156
.step run=157
.step run=158
.step run=159
.step run=160
.step run=161
.step run=162
.step run=163
.step run=164
.step run=165
.step run=166
.step run=167
.step run=168
.step run=169
.step run=170
.step run=171
.step run=172
.step run=173
.step run=174
.step run=175
.step run=176
.step run=177
.step run=178
.step run=179
.step run=180
.step run=181
.step run=182
.step run=183
.step run=184
.step run=185
.step run=186
.step run=187
.step run=188
.step run=189
.step run=190
.step run=191
.step run=192
.step run=193
.step run=194
.step run=195
.step run=196
.step run=197
.step run=198
.step run=199
.step run=200
.step run=201
.step run=202
.step run=203
.step run=204
.step run=205
.step run=206
.step run=207
.step run=208
.step run=209
.step run=210
.step run=211
.step run=212
.step run=213
.step run=214
.step run=215
.step run=216
.step run=217
.step run=218
.step run=219
.step run=220
.step run=221
.step run=222
.step run=223
.step run=224
.step run=225
.step run=226
.step run=227
.step run=228
.step run=229
.step run=230
.step run=231
.step run=232
.step run=233
.step run=234
.step run=235
.step run=236
.step run=237
.step run=238
.step run=239
.step run=240
.step run=241
.step run=242
.step run=243
.step run=244
.step run=245
.step run=246
.step run=247
.step run=248
.step run=249
.step run=250
.step run=251
.step run=252
.step run=253
.step run=254
.step run=255
.step run=256
.step run=257
.step run=258
.step run=259
.step run=260
.step run=261
.step run=262
.step run=263
.step run=264
.step run=265
.step run=266
.step run=267
.step run=268
.step run=269
.step run=270
.step run=271
.step run=272
.step run=273
.step run=274
.step run=275
.step run=276
.step run=277
.step run=278
.step run=279
.step run=280
.step run=281
.step run=282
.step run=283
.step run=284
.step run=285
.step run=286
.step run=287
.step run=288
.step run=289
.step run=290
.step run=291
.step run=292
.step run=293
.step run=294
.step run=295
.step run=296
.step run=297
.step run=298
.step run=299
.step run=300
.step run=301
.step run=302
.step run=303
.step run=304
.step run=305
.step run=306
.step run=307
.step run=308
.step run=309
.step run=310
.step run=311
.step run=312
.step run=313
.step run=314
.step run=315
.step run=316
.step run=317
.step run=318
.step run=319
.step run=320
.step run=321
.step run=322
.step run=323
.step run=324
.step run=325
.step run=326
.step run=327
.step run=328
.step run=329
.step run=330
.step run=331
.step run=332
.step run=333
.step run=334
.step run=335
.step run=336
.step run=337
.step run=338
.step run=339
.step run=340
.step run=341
.step run=342
.step run=343
.step run=344
.step run=345
.step run=346
.step run=347
.step run=348
.step run=349
.step run=350
.step run=351
.step run=352
.step run=353
.step run=354
.step run=355
.step run=356
.step run=357
.step run=358
.step run=359
.step run=360
.step run=361
.step run=362
.step run=363
.step run=364
.step run=365
.step run=366
.step run=367
.step run=368
.step run=369
.step run=370
.step run=371
.step run=372
.step run=373
.step run=374
.step run=375
.step run=376
.step run=377
.step run=378
.step run=379
.step run=380
.step run=381
.step run=382
.step run=383
.step run=384
.step run=385
.step run=386
.step run=387
.step run=388
.step run=389
.step run=390
.step run=391
.step run=392
.step run=393
.step run=394
.step run=395
.step run=396
.step run=397
.step run=398
.step run=399
.step run=400


Measurement: snm_max
  step	MAX(0.707*v(v1)-0.707*v(v2))	FROM	TO
     1	0.132797	-0.707	0.707
     2	0.128217	-0.707	0.707
     3	0.129925	-0.707	0.707
     4	0.13129	-0.707	0.707
     5	0.137351	-0.707	0.707
     6	0.128506	-0.707	0.707
     7	0.129817	-0.707	0.707
     8	0.138205	-0.707	0.707
     9	0.134887	-0.707	0.707
    10	0.131714	-0.707	0.707
    11	0.136455	-0.707	0.707
    12	0.133381	-0.707	0.707
    13	0.134115	-0.707	0.707
    14	0.128399	-0.707	0.707
    15	0.131238	-0.707	0.707
    16	0.132255	-0.707	0.707
    17	0.12771	-0.707	0.707
    18	0.132046	-0.707	0.707
    19	0.129287	-0.707	0.707
    20	0.128506	-0.707	0.707
    21	0.130212	-0.707	0.707
    22	0.13324	-0.707	0.707
    23	0.132282	-0.707	0.707
    24	0.13032	-0.707	0.707
    25	0.128328	-0.707	0.707
    26	0.13117	-0.707	0.707
    27	0.13058	-0.707	0.707
    28	0.138767	-0.707	0.707
    29	0.132186	-0.707	0.707
    30	0.128615	-0.707	0.707
    31	0.131713	-0.707	0.707
    32	0.132745	-0.707	0.707
    33	0.128869	-0.707	0.707
    34	0.12918	-0.707	0.707
    35	0.134117	-0.707	0.707
    36	0.128366	-0.707	0.707
    37	0.132811	-0.707	0.707
    38	0.131601	-0.707	0.707
    39	0.130832	-0.707	0.707
    40	0.13345	-0.707	0.707
    41	0.134693	-0.707	0.707
    42	0.126334	-0.707	0.707
    43	0.128212	-0.707	0.707
    44	0.132547	-0.707	0.707
    45	0.129419	-0.707	0.707
    46	0.131613	-0.707	0.707
    47	0.13561	-0.707	0.707
    48	0.137016	-0.707	0.707
    49	0.129415	-0.707	0.707
    50	0.138643	-0.707	0.707
    51	0.126888	-0.707	0.707
    52	0.124105	-0.707	0.707
    53	0.133664	-0.707	0.707
    54	0.124408	-0.707	0.707
    55	0.126257	-0.707	0.707
    56	0.12773	-0.707	0.707
    57	0.128619	-0.707	0.707
    58	0.126072	-0.707	0.707
    59	0.136982	-0.707	0.707
    60	0.132142	-0.707	0.707
    61	0.128888	-0.707	0.707
    62	0.129887	-0.707	0.707
    63	0.135632	-0.707	0.707
    64	0.133285	-0.707	0.707
    65	0.133433	-0.707	0.707
    66	0.124602	-0.707	0.707
    67	0.129096	-0.707	0.707
    68	0.129403	-0.707	0.707
    69	0.130473	-0.707	0.707
    70	0.138885	-0.707	0.707
    71	0.132082	-0.707	0.707
    72	0.12988	-0.707	0.707
    73	0.129318	-0.707	0.707
    74	0.127069	-0.707	0.707
    75	0.135442	-0.707	0.707
    76	0.12823	-0.707	0.707
    77	0.130163	-0.707	0.707
    78	0.136282	-0.707	0.707
    79	0.137467	-0.707	0.707
    80	0.133056	-0.707	0.707
    81	0.126773	-0.707	0.707
    82	0.127752	-0.707	0.707
    83	0.128426	-0.707	0.707
    84	0.129101	-0.707	0.707
    85	0.131342	-0.707	0.707
    86	0.127911	-0.707	0.707
    87	0.125578	-0.707	0.707
    88	0.127993	-0.707	0.707
    89	0.136527	-0.707	0.707
    90	0.126625	-0.707	0.707
    91	0.1347	-0.707	0.707
    92	0.129446	-0.707	0.707
    93	0.126543	-0.707	0.707
    94	0.12869	-0.707	0.707
    95	0.125023	-0.707	0.707
    96	0.133133	-0.707	0.707
    97	0.128658	-0.707	0.707
    98	0.132452	-0.707	0.707
    99	0.130895	-0.707	0.707
   100	0.131218	-0.707	0.707
   101	0.132698	-0.707	0.707
   102	0.128067	-0.707	0.707
   103	0.130759	-0.707	0.707
   104	0.128852	-0.707	0.707
   105	0.130141	-0.707	0.707
   106	0.13278	-0.707	0.707
   107	0.132673	-0.707	0.707
   108	0.133157	-0.707	0.707
   109	0.132992	-0.707	0.707
   110	0.126851	-0.707	0.707
   111	0.135564	-0.707	0.707
   112	0.136843	-0.707	0.707
   113	0.130543	-0.707	0.707
   114	0.129164	-0.707	0.707
   115	0.136461	-0.707	0.707
   116	0.125526	-0.707	0.707
   117	0.127007	-0.707	0.707
   118	0.132892	-0.707	0.707
   119	0.129184	-0.707	0.707
   120	0.133446	-0.707	0.707
   121	0.130633	-0.707	0.707
   122	0.131569	-0.707	0.707
   123	0.133749	-0.707	0.707
   124	0.128109	-0.707	0.707
   125	0.128485	-0.707	0.707
   126	0.125772	-0.707	0.707
   127	0.12634	-0.707	0.707
   128	0.131427	-0.707	0.707
   129	0.124799	-0.707	0.707
   130	0.130028	-0.707	0.707
   131	0.134695	-0.707	0.707
   132	0.131249	-0.707	0.707
   133	0.124281	-0.707	0.707
   134	0.129524	-0.707	0.707
   135	0.131115	-0.707	0.707
   136	0.125293	-0.707	0.707
   137	0.13505	-0.707	0.707
   138	0.127232	-0.707	0.707
   139	0.134935	-0.707	0.707
   140	0.127065	-0.707	0.707
   141	0.131031	-0.707	0.707
   142	0.124067	-0.707	0.707
   143	0.125048	-0.707	0.707
   144	0.129597	-0.707	0.707
   145	0.127816	-0.707	0.707
   146	0.135839	-0.707	0.707
   147	0.129999	-0.707	0.707
   148	0.127113	-0.707	0.707
   149	0.130576	-0.707	0.707
   150	0.13055	-0.707	0.707
   151	0.126605	-0.707	0.707
   152	0.125297	-0.707	0.707
   153	0.130204	-0.707	0.707
   154	0.126173	-0.707	0.707
   155	0.131215	-0.707	0.707
   156	0.1308	-0.707	0.707
   157	0.132224	-0.707	0.707
   158	0.131784	-0.707	0.707
   159	0.12578	-0.707	0.707
   160	0.129076	-0.707	0.707
   161	0.126473	-0.707	0.707
   162	0.133719	-0.707	0.707
   163	0.127905	-0.707	0.707
   164	0.134856	-0.707	0.707
   165	0.123312	-0.707	0.707
   166	0.127895	-0.707	0.707
   167	0.134045	-0.707	0.707
   168	0.127472	-0.707	0.707
   169	0.148032	-0.707	0.707
   170	0.133418	-0.707	0.707
   171	0.132075	-0.707	0.707
   172	0.123524	-0.707	0.707
   173	0.132561	-0.707	0.707
   174	0.135244	-0.707	0.707
   175	0.136108	-0.707	0.707
   176	0.17769	-0.707	0.707
   177	0.13406	-0.707	0.707
   178	0.129235	-0.707	0.707
   179	0.126818	-0.707	0.707
   180	0.133648	-0.707	0.707
   181	0.128957	-0.707	0.707
   182	0.13216	-0.707	0.707
   183	0.129282	-0.707	0.707
   184	0.12886	-0.707	0.707
   185	0.132228	-0.707	0.707
   186	0.135044	-0.707	0.707
   187	0.136404	-0.707	0.707
   188	0.128564	-0.707	0.707
   189	0.132001	-0.707	0.707
   190	0.13381	-0.707	0.707
   191	0.127089	-0.707	0.707
   192	0.132748	-0.707	0.707
   193	0.124579	-0.707	0.707
   194	0.132904	-0.707	0.707
   195	0.129782	-0.707	0.707
   196	0.130902	-0.707	0.707
   197	0.131541	-0.707	0.707
   198	0.134181	-0.707	0.707
   199	0.131458	-0.707	0.707
   200	0.128162	-0.707	0.707
   201	0.132324	-0.707	0.707
   202	0.129368	-0.707	0.707
   203	0.123445	-0.707	0.707
   204	0.133585	-0.707	0.707
   205	0.12734	-0.707	0.707
   206	0.12448	-0.707	0.707
   207	0.132062	-0.707	0.707
   208	0.129029	-0.707	0.707
   209	0.125037	-0.707	0.707
   210	0.129478	-0.707	0.707
   211	0.127823	-0.707	0.707
   212	0.13012	-0.707	0.707
   213	0.127717	-0.707	0.707
   214	0.128005	-0.707	0.707
   215	0.131503	-0.707	0.707
   216	0.127928	-0.707	0.707
   217	0.131847	-0.707	0.707
   218	0.130177	-0.707	0.707
   219	0.130724	-0.707	0.707
   220	0.125551	-0.707	0.707
   221	0.125933	-0.707	0.707
   222	0.123884	-0.707	0.707
   223	0.137132	-0.707	0.707
   224	0.127534	-0.707	0.707
   225	0.13111	-0.707	0.707
   226	0.130537	-0.707	0.707
   227	0.13564	-0.707	0.707
   228	0.133327	-0.707	0.707
   229	0.133658	-0.707	0.707
   230	0.135874	-0.707	0.707
   231	0.13179	-0.707	0.707
   232	0.131809	-0.707	0.707
   233	0.129685	-0.707	0.707
   234	0.133184	-0.707	0.707
   235	0.128115	-0.707	0.707
   236	0.138323	-0.707	0.707
   237	0.136755	-0.707	0.707
   238	0.130125	-0.707	0.707
   239	0.128825	-0.707	0.707
   240	0.130677	-0.707	0.707
   241	0.129089	-0.707	0.707
   242	0.125998	-0.707	0.707
   243	0.127963	-0.707	0.707
   244	0.132238	-0.707	0.707
   245	0.125049	-0.707	0.707
   246	0.133899	-0.707	0.707
   247	0.130219	-0.707	0.707
   248	0.128588	-0.707	0.707
   249	0.128256	-0.707	0.707
   250	0.124939	-0.707	0.707
   251	0.12664	-0.707	0.707
   252	0.130244	-0.707	0.707
   253	0.131474	-0.707	0.707
   254	0.135249	-0.707	0.707
   255	0.129816	-0.707	0.707
   256	0.130533	-0.707	0.707
   257	0.138033	-0.707	0.707
   258	0.134122	-0.707	0.707
   259	0.12826	-0.707	0.707
   260	0.127635	-0.707	0.707
   261	0.131979	-0.707	0.707
   262	0.132773	-0.707	0.707
   263	0.124887	-0.707	0.707
   264	0.131388	-0.707	0.707
   265	0.137505	-0.707	0.707
   266	0.132981	-0.707	0.707
   267	0.131949	-0.707	0.707
   268	0.13315	-0.707	0.707
   269	0.131176	-0.707	0.707
   270	0.135446	-0.707	0.707
   271	0.124125	-0.707	0.707
   272	0.126532	-0.707	0.707
   273	0.125103	-0.707	0.707
   274	0.133472	-0.707	0.707
   275	0.128421	-0.707	0.707
   276	0.137061	-0.707	0.707
   277	0.131528	-0.707	0.707
   278	0.132909	-0.707	0.707
   279	0.13414	-0.707	0.707
   280	0.126454	-0.707	0.707
   281	0.127849	-0.707	0.707
   282	0.128217	-0.707	0.707
   283	0.132338	-0.707	0.707
   284	0.131139	-0.707	0.707
   285	0.132956	-0.707	0.707
   286	0.130468	-0.707	0.707
   287	0.130069	-0.707	0.707
   288	0.136518	-0.707	0.707
   289	0.130717	-0.707	0.707
   290	0.128186	-0.707	0.707
   291	0.137539	-0.707	0.707
   292	0.136434	-0.707	0.707
   293	0.132119	-0.707	0.707
   294	0.129689	-0.707	0.707
   295	0.137802	-0.707	0.707
   296	0.13455	-0.707	0.707
   297	0.128256	-0.707	0.707
   298	0.131917	-0.707	0.707
   299	0.136909	-0.707	0.707
   300	0.134408	-0.707	0.707
   301	0.12991	-0.707	0.707
   302	0.13737	-0.707	0.707
   303	0.131787	-0.707	0.707
   304	0.130193	-0.707	0.707
   305	0.138373	-0.707	0.707
   306	0.131778	-0.707	0.707
   307	0.132029	-0.707	0.707
   308	0.128824	-0.707	0.707
   309	0.131067	-0.707	0.707
   310	0.130847	-0.707	0.707
   311	0.134496	-0.707	0.707
   312	0.132327	-0.707	0.707
   313	0.127051	-0.707	0.707
   314	0.12669	-0.707	0.707
   315	0.128672	-0.707	0.707
   316	0.130152	-0.707	0.707
   317	0.134402	-0.707	0.707
   318	0.131171	-0.707	0.707
   319	0.142641	-0.707	0.707
   320	0.133198	-0.707	0.707
   321	0.129186	-0.707	0.707
   322	0.130387	-0.707	0.707
   323	0.132668	-0.707	0.707
   324	0.129969	-0.707	0.707
   325	0.12621	-0.707	0.707
   326	0.131507	-0.707	0.707
   327	0.125529	-0.707	0.707
   328	0.127116	-0.707	0.707
   329	0.124814	-0.707	0.707
   330	0.125259	-0.707	0.707
   331	0.132175	-0.707	0.707
   332	0.135962	-0.707	0.707
   333	0.132567	-0.707	0.707
   334	0.131229	-0.707	0.707
   335	0.125808	-0.707	0.707
   336	0.128948	-0.707	0.707
   337	0.125719	-0.707	0.707
   338	0.134446	-0.707	0.707
   339	0.137489	-0.707	0.707
   340	0.131411	-0.707	0.707
   341	0.124973	-0.707	0.707
   342	0.129576	-0.707	0.707
   343	0.130251	-0.707	0.707
   344	0.130012	-0.707	0.707
   345	0.133607	-0.707	0.707
   346	0.128933	-0.707	0.707
   347	0.128718	-0.707	0.707
   348	0.13492	-0.707	0.707
   349	0.133738	-0.707	0.707
   350	0.132547	-0.707	0.707
   351	0.129864	-0.707	0.707
   352	0.133609	-0.707	0.707
   353	0.128686	-0.707	0.707
   354	0.130279	-0.707	0.707
   355	0.13223	-0.707	0.707
   356	0.135277	-0.707	0.707
   357	0.129236	-0.707	0.707
   358	0.125632	-0.707	0.707
   359	0.127425	-0.707	0.707
   360	0.132109	-0.707	0.707
   361	0.144213	-0.707	0.707
   362	0.133379	-0.707	0.707
   363	0.130168	-0.707	0.707
   364	0.127212	-0.707	0.707
   365	0.133339	-0.707	0.707
   366	0.133158	-0.707	0.707
   367	0.129028	-0.707	0.707
   368	0.12971	-0.707	0.707
   369	0.127742	-0.707	0.707
   370	0.13234	-0.707	0.707
   371	0.134991	-0.707	0.707
   372	0.133437	-0.707	0.707
   373	0.136813	-0.707	0.707
   374	0.1267	-0.707	0.707
   375	0.12854	-0.707	0.707
   376	0.13235	-0.707	0.707
   377	0.126801	-0.707	0.707
   378	0.128391	-0.707	0.707
   379	0.140369	-0.707	0.707
   380	0.129274	-0.707	0.707
   381	0.1257	-0.707	0.707
   382	0.136914	-0.707	0.707
   383	0.136362	-0.707	0.707
   384	0.131336	-0.707	0.707
   385	0.133688	-0.707	0.707
   386	0.132109	-0.707	0.707
   387	0.12733	-0.707	0.707
   388	0.124528	-0.707	0.707
   389	0.132802	-0.707	0.707
   390	0.127194	-0.707	0.707
   391	0.143749	-0.707	0.707
   392	0.126834	-0.707	0.707
   393	0.133858	-0.707	0.707
   394	0.131724	-0.707	0.707
   395	0.127254	-0.707	0.707
   396	0.136096	-0.707	0.707
   397	0.123924	-0.707	0.707
   398	0.131927	-0.707	0.707
   399	0.1315	-0.707	0.707
   400	0.134443	-0.707	0.707

Measurement: snm_min
  step	MIN(0.707*v(v1)-0.707*v(v2))	FROM	TO
     1	-0.132797	-0.707	0.707
     2	-0.128217	-0.707	0.707
     3	-0.129925	-0.707	0.707
     4	-0.13129	-0.707	0.707
     5	-0.137357	-0.707	0.707
     6	-0.128506	-0.707	0.707
     7	-0.129817	-0.707	0.707
     8	-0.138205	-0.707	0.707
     9	-0.134887	-0.707	0.707
    10	-0.131714	-0.707	0.707
    11	-0.136455	-0.707	0.707
    12	-0.133381	-0.707	0.707
    13	-0.134115	-0.707	0.707
    14	-0.128399	-0.707	0.707
    15	-0.131238	-0.707	0.707
    16	-0.132255	-0.707	0.707
    17	-0.12771	-0.707	0.707
    18	-0.132046	-0.707	0.707
    19	-0.129287	-0.707	0.707
    20	-0.128506	-0.707	0.707
    21	-0.130212	-0.707	0.707
    22	-0.13324	-0.707	0.707
    23	-0.132282	-0.707	0.707
    24	-0.13032	-0.707	0.707
    25	-0.128328	-0.707	0.707
    26	-0.13117	-0.707	0.707
    27	-0.130545	-0.707	0.707
    28	-0.138767	-0.707	0.707
    29	-0.132186	-0.707	0.707
    30	-0.128615	-0.707	0.707
    31	-0.131713	-0.707	0.707
    32	-0.132745	-0.707	0.707
    33	-0.128869	-0.707	0.707
    34	-0.12918	-0.707	0.707
    35	-0.134117	-0.707	0.707
    36	-0.128366	-0.707	0.707
    37	-0.132811	-0.707	0.707
    38	-0.131601	-0.707	0.707
    39	-0.130832	-0.707	0.707
    40	-0.13345	-0.707	0.707
    41	-0.134693	-0.707	0.707
    42	-0.126334	-0.707	0.707
    43	-0.128212	-0.707	0.707
    44	-0.132547	-0.707	0.707
    45	-0.129419	-0.707	0.707
    46	-0.131613	-0.707	0.707
    47	-0.13561	-0.707	0.707
    48	-0.137016	-0.707	0.707
    49	-0.129415	-0.707	0.707
    50	-0.138643	-0.707	0.707
    51	-0.126888	-0.707	0.707
    52	-0.124105	-0.707	0.707
    53	-0.133664	-0.707	0.707
    54	-0.124408	-0.707	0.707
    55	-0.126257	-0.707	0.707
    56	-0.12773	-0.707	0.707
    57	-0.128619	-0.707	0.707
    58	-0.126072	-0.707	0.707
    59	-0.136982	-0.707	0.707
    60	-0.132142	-0.707	0.707
    61	-0.128888	-0.707	0.707
    62	-0.129887	-0.707	0.707
    63	-0.135632	-0.707	0.707
    64	-0.133285	-0.707	0.707
    65	-0.133433	-0.707	0.707
    66	-0.124602	-0.707	0.707
    67	-0.129096	-0.707	0.707
    68	-0.129403	-0.707	0.707
    69	-0.130473	-0.707	0.707
    70	-0.138885	-0.707	0.707
    71	-0.132082	-0.707	0.707
    72	-0.12988	-0.707	0.707
    73	-0.129318	-0.707	0.707
    74	-0.127069	-0.707	0.707
    75	-0.135442	-0.707	0.707
    76	-0.12823	-0.707	0.707
    77	-0.130163	-0.707	0.707
    78	-0.136282	-0.707	0.707
    79	-0.137467	-0.707	0.707
    80	-0.133056	-0.707	0.707
    81	-0.126773	-0.707	0.707
    82	-0.127752	-0.707	0.707
    83	-0.128426	-0.707	0.707
    84	-0.129101	-0.707	0.707
    85	-0.131342	-0.707	0.707
    86	-0.127911	-0.707	0.707
    87	-0.125578	-0.707	0.707
    88	-0.127993	-0.707	0.707
    89	-0.136527	-0.707	0.707
    90	-0.126625	-0.707	0.707
    91	-0.1347	-0.707	0.707
    92	-0.129446	-0.707	0.707
    93	-0.126543	-0.707	0.707
    94	-0.12869	-0.707	0.707
    95	-0.125023	-0.707	0.707
    96	-0.133133	-0.707	0.707
    97	-0.128658	-0.707	0.707
    98	-0.132452	-0.707	0.707
    99	-0.130895	-0.707	0.707
   100	-0.131218	-0.707	0.707
   101	-0.132698	-0.707	0.707
   102	-0.128067	-0.707	0.707
   103	-0.130759	-0.707	0.707
   104	-0.128852	-0.707	0.707
   105	-0.130141	-0.707	0.707
   106	-0.13278	-0.707	0.707
   107	-0.132673	-0.707	0.707
   108	-0.133157	-0.707	0.707
   109	-0.132992	-0.707	0.707
   110	-0.126813	-0.707	0.707
   111	-0.135564	-0.707	0.707
   112	-0.136843	-0.707	0.707
   113	-0.130543	-0.707	0.707
   114	-0.129164	-0.707	0.707
   115	-0.136461	-0.707	0.707
   116	-0.125526	-0.707	0.707
   117	-0.127007	-0.707	0.707
   118	-0.132892	-0.707	0.707
   119	-0.129184	-0.707	0.707
   120	-0.133446	-0.707	0.707
   121	-0.130633	-0.707	0.707
   122	-0.131569	-0.707	0.707
   123	-0.133749	-0.707	0.707
   124	-0.128109	-0.707	0.707
   125	-0.128485	-0.707	0.707
   126	-0.125772	-0.707	0.707
   127	-0.12634	-0.707	0.707
   128	-0.131427	-0.707	0.707
   129	-0.124799	-0.707	0.707
   130	-0.130028	-0.707	0.707
   131	-0.134695	-0.707	0.707
   132	-0.131249	-0.707	0.707
   133	-0.124281	-0.707	0.707
   134	-0.129524	-0.707	0.707
   135	-0.131115	-0.707	0.707
   136	-0.125293	-0.707	0.707
   137	-0.13505	-0.707	0.707
   138	-0.127232	-0.707	0.707
   139	-0.134935	-0.707	0.707
   140	-0.127065	-0.707	0.707
   141	-0.131031	-0.707	0.707
   142	-0.124067	-0.707	0.707
   143	-0.125048	-0.707	0.707
   144	-0.129597	-0.707	0.707
   145	-0.127816	-0.707	0.707
   146	-0.135839	-0.707	0.707
   147	-0.129999	-0.707	0.707
   148	-0.127113	-0.707	0.707
   149	-0.130576	-0.707	0.707
   150	-0.13055	-0.707	0.707
   151	-0.126605	-0.707	0.707
   152	-0.125297	-0.707	0.707
   153	-0.130204	-0.707	0.707
   154	-0.126173	-0.707	0.707
   155	-0.131215	-0.707	0.707
   156	-0.1308	-0.707	0.707
   157	-0.132224	-0.707	0.707
   158	-0.131784	-0.707	0.707
   159	-0.12578	-0.707	0.707
   160	-0.129076	-0.707	0.707
   161	-0.126473	-0.707	0.707
   162	-0.133719	-0.707	0.707
   163	-0.127905	-0.707	0.707
   164	-0.134856	-0.707	0.707
   165	-0.123312	-0.707	0.707
   166	-0.127895	-0.707	0.707
   167	-0.134045	-0.707	0.707
   168	-0.127472	-0.707	0.707
   169	-0.148032	-0.707	0.707
   170	-0.133418	-0.707	0.707
   171	-0.132075	-0.707	0.707
   172	-0.123524	-0.707	0.707
   173	-0.132561	-0.707	0.707
   174	-0.135244	-0.707	0.707
   175	-0.136108	-0.707	0.707
   176	-0.177704	-0.707	0.707
   177	-0.13406	-0.707	0.707
   178	-0.129235	-0.707	0.707
   179	-0.126818	-0.707	0.707
   180	-0.133648	-0.707	0.707
   181	-0.128957	-0.707	0.707
   182	-0.13216	-0.707	0.707
   183	-0.129282	-0.707	0.707
   184	-0.12886	-0.707	0.707
   185	-0.132228	-0.707	0.707
   186	-0.135044	-0.707	0.707
   187	-0.136404	-0.707	0.707
   188	-0.128564	-0.707	0.707
   189	-0.132001	-0.707	0.707
   190	-0.13381	-0.707	0.707
   191	-0.127089	-0.707	0.707
   192	-0.132748	-0.707	0.707
   193	-0.124579	-0.707	0.707
   194	-0.132904	-0.707	0.707
   195	-0.129782	-0.707	0.707
   196	-0.130902	-0.707	0.707
   197	-0.131541	-0.707	0.707
   198	-0.134181	-0.707	0.707
   199	-0.131458	-0.707	0.707
   200	-0.128162	-0.707	0.707
   201	-0.132324	-0.707	0.707
   202	-0.129368	-0.707	0.707
   203	-0.123445	-0.707	0.707
   204	-0.133585	-0.707	0.707
   205	-0.12734	-0.707	0.707
   206	-0.12448	-0.707	0.707
   207	-0.132062	-0.707	0.707
   208	-0.129029	-0.707	0.707
   209	-0.125037	-0.707	0.707
   210	-0.129478	-0.707	0.707
   211	-0.127823	-0.707	0.707
   212	-0.13012	-0.707	0.707
   213	-0.127717	-0.707	0.707
   214	-0.128005	-0.707	0.707
   215	-0.131503	-0.707	0.707
   216	-0.127928	-0.707	0.707
   217	-0.131847	-0.707	0.707
   218	-0.130177	-0.707	0.707
   219	-0.130724	-0.707	0.707
   220	-0.125525	-0.707	0.707
   221	-0.125933	-0.707	0.707
   222	-0.123884	-0.707	0.707
   223	-0.137132	-0.707	0.707
   224	-0.127534	-0.707	0.707
   225	-0.13111	-0.707	0.707
   226	-0.130537	-0.707	0.707
   227	-0.13564	-0.707	0.707
   228	-0.133327	-0.707	0.707
   229	-0.133658	-0.707	0.707
   230	-0.135874	-0.707	0.707
   231	-0.13179	-0.707	0.707
   232	-0.131809	-0.707	0.707
   233	-0.129685	-0.707	0.707
   234	-0.133184	-0.707	0.707
   235	-0.128115	-0.707	0.707
   236	-0.138323	-0.707	0.707
   237	-0.136755	-0.707	0.707
   238	-0.130125	-0.707	0.707
   239	-0.128825	-0.707	0.707
   240	-0.130677	-0.707	0.707
   241	-0.129089	-0.707	0.707
   242	-0.125998	-0.707	0.707
   243	-0.127963	-0.707	0.707
   244	-0.132238	-0.707	0.707
   245	-0.125049	-0.707	0.707
   246	-0.133899	-0.707	0.707
   247	-0.130219	-0.707	0.707
   248	-0.128588	-0.707	0.707
   249	-0.128256	-0.707	0.707
   250	-0.124939	-0.707	0.707
   251	-0.12664	-0.707	0.707
   252	-0.130244	-0.707	0.707
   253	-0.131474	-0.707	0.707
   254	-0.135249	-0.707	0.707
   255	-0.129816	-0.707	0.707
   256	-0.130533	-0.707	0.707
   257	-0.138033	-0.707	0.707
   258	-0.134122	-0.707	0.707
   259	-0.12826	-0.707	0.707
   260	-0.127635	-0.707	0.707
   261	-0.131979	-0.707	0.707
   262	-0.132782	-0.707	0.707
   263	-0.124887	-0.707	0.707
   264	-0.131388	-0.707	0.707
   265	-0.137505	-0.707	0.707
   266	-0.132981	-0.707	0.707
   267	-0.131949	-0.707	0.707
   268	-0.13315	-0.707	0.707
   269	-0.131176	-0.707	0.707
   270	-0.135446	-0.707	0.707
   271	-0.124125	-0.707	0.707
   272	-0.126532	-0.707	0.707
   273	-0.125103	-0.707	0.707
   274	-0.133472	-0.707	0.707
   275	-0.128421	-0.707	0.707
   276	-0.137061	-0.707	0.707
   277	-0.131528	-0.707	0.707
   278	-0.132909	-0.707	0.707
   279	-0.13414	-0.707	0.707
   280	-0.126454	-0.707	0.707
   281	-0.127849	-0.707	0.707
   282	-0.128217	-0.707	0.707
   283	-0.132338	-0.707	0.707
   284	-0.131139	-0.707	0.707
   285	-0.132956	-0.707	0.707
   286	-0.130468	-0.707	0.707
   287	-0.130069	-0.707	0.707
   288	-0.136518	-0.707	0.707
   289	-0.130717	-0.707	0.707
   290	-0.128186	-0.707	0.707
   291	-0.137539	-0.707	0.707
   292	-0.136434	-0.707	0.707
   293	-0.132119	-0.707	0.707
   294	-0.129689	-0.707	0.707
   295	-0.137802	-0.707	0.707
   296	-0.13455	-0.707	0.707
   297	-0.128238	-0.707	0.707
   298	-0.131917	-0.707	0.707
   299	-0.136896	-0.707	0.707
   300	-0.134408	-0.707	0.707
   301	-0.12991	-0.707	0.707
   302	-0.13737	-0.707	0.707
   303	-0.131787	-0.707	0.707
   304	-0.130193	-0.707	0.707
   305	-0.138373	-0.707	0.707
   306	-0.131778	-0.707	0.707
   307	-0.132029	-0.707	0.707
   308	-0.128824	-0.707	0.707
   309	-0.131067	-0.707	0.707
   310	-0.130847	-0.707	0.707
   311	-0.134496	-0.707	0.707
   312	-0.132327	-0.707	0.707
   313	-0.127051	-0.707	0.707
   314	-0.126643	-0.707	0.707
   315	-0.128672	-0.707	0.707
   316	-0.130152	-0.707	0.707
   317	-0.134402	-0.707	0.707
   318	-0.131171	-0.707	0.707
   319	-0.142641	-0.707	0.707
   320	-0.133198	-0.707	0.707
   321	-0.129186	-0.707	0.707
   322	-0.130387	-0.707	0.707
   323	-0.132668	-0.707	0.707
   324	-0.129969	-0.707	0.707
   325	-0.12621	-0.707	0.707
   326	-0.131507	-0.707	0.707
   327	-0.125529	-0.707	0.707
   328	-0.127082	-0.707	0.707
   329	-0.124814	-0.707	0.707
   330	-0.125259	-0.707	0.707
   331	-0.132175	-0.707	0.707
   332	-0.135962	-0.707	0.707
   333	-0.132567	-0.707	0.707
   334	-0.131229	-0.707	0.707
   335	-0.125808	-0.707	0.707
   336	-0.128948	-0.707	0.707
   337	-0.125719	-0.707	0.707
   338	-0.134446	-0.707	0.707
   339	-0.137489	-0.707	0.707
   340	-0.131411	-0.707	0.707
   341	-0.124973	-0.707	0.707
   342	-0.129576	-0.707	0.707
   343	-0.130251	-0.707	0.707
   344	-0.130012	-0.707	0.707
   345	-0.133607	-0.707	0.707
   346	-0.128933	-0.707	0.707
   347	-0.128718	-0.707	0.707
   348	-0.134922	-0.707	0.707
   349	-0.133738	-0.707	0.707
   350	-0.132547	-0.707	0.707
   351	-0.129864	-0.707	0.707
   352	-0.133609	-0.707	0.707
   353	-0.128686	-0.707	0.707
   354	-0.130279	-0.707	0.707
   355	-0.13223	-0.707	0.707
   356	-0.135277	-0.707	0.707
   357	-0.129236	-0.707	0.707
   358	-0.125632	-0.707	0.707
   359	-0.127425	-0.707	0.707
   360	-0.132109	-0.707	0.707
   361	-0.144213	-0.707	0.707
   362	-0.133379	-0.707	0.707
   363	-0.130168	-0.707	0.707
   364	-0.127212	-0.707	0.707
   365	-0.133339	-0.707	0.707
   366	-0.133158	-0.707	0.707
   367	-0.129028	-0.707	0.707
   368	-0.12971	-0.707	0.707
   369	-0.127742	-0.707	0.707
   370	-0.13234	-0.707	0.707
   371	-0.134991	-0.707	0.707
   372	-0.133437	-0.707	0.707
   373	-0.136813	-0.707	0.707
   374	-0.1267	-0.707	0.707
   375	-0.12854	-0.707	0.707
   376	-0.13235	-0.707	0.707
   377	-0.126801	-0.707	0.707
   378	-0.128391	-0.707	0.707
   379	-0.140369	-0.707	0.707
   380	-0.129274	-0.707	0.707
   381	-0.1257	-0.707	0.707
   382	-0.136914	-0.707	0.707
   383	-0.136362	-0.707	0.707
   384	-0.131336	-0.707	0.707
   385	-0.13367	-0.707	0.707
   386	-0.132109	-0.707	0.707
   387	-0.12733	-0.707	0.707
   388	-0.124528	-0.707	0.707
   389	-0.132802	-0.707	0.707
   390	-0.127194	-0.707	0.707
   391	-0.143749	-0.707	0.707
   392	-0.126834	-0.707	0.707
   393	-0.133858	-0.707	0.707
   394	-0.131724	-0.707	0.707
   395	-0.127254	-0.707	0.707
   396	-0.136096	-0.707	0.707
   397	-0.123924	-0.707	0.707
   398	-0.131927	-0.707	0.707
   399	-0.1315	-0.707	0.707
   400	-0.134443	-0.707	0.707


Date: Wed Nov 29 18:14:44 2023
Total elapsed time: 27.979 seconds.

tnom = 27
temp = 27
method = trap
totiter = 295
traniter = 0
tranpoints = 0
accept = 0
rejected = 0
matrix size = 33
fillins = 28
solver = Normal
Avg thread counts: 7.0/0.0/8.0/7.0
Matrix Compiler1: 2.14 KB object code size  0.6/0.4/[0.3]
Matrix Compiler2: 2.78 KB object code size  0.3/0.5/[0.2]

