Circuit: * D:\Disco D\universita\magistrale\progettazione-low-power\progetti\progetto-2\ltspice\models\gaussian-vth\read\gaussian_vth_read.asc

WARNING: Node NC_01 is floating.
WARNING: Node NC_02 is floating.
WARNING: Node NC_03 is floating.
WARNING: Node NC_04 is floating.
WARNING: Node NC_05 is floating.

WARNING: Less than two connections to node nc_01.  This node is used by vsweep.
WARNING: Less than two connections to node nc_02.  This node is used by e2.
WARNING: Less than two connections to node nc_03.  This node is used by e8.
WARNING: Less than two connections to node nc_04.  This node is used by m5.
WARNING: Less than two connections to node nc_05.  This node is used by m6.
Warning: Pd = 0 is less than W.
Warning: Ps = 0 is less than W.
Warning: Pd = 0 is less than W.
Warning: Ps = 0 is less than W.
Warning: Pd = 0 is less than W.
Warning: Ps = 0 is less than W.
.step run=1
.step run=2
.step run=3
.step run=4
.step run=5
.step run=6
.step run=7
.step run=8
.step run=9
.step run=10
.step run=11
.step run=12
.step run=13
.step run=14
.step run=15
.step run=16
.step run=17
.step run=18
.step run=19
.step run=20
.step run=21
.step run=22
.step run=23
.step run=24
.step run=25
.step run=26
.step run=27
.step run=28
.step run=29
.step run=30
.step run=31
.step run=32
.step run=33
.step run=34
.step run=35
.step run=36
.step run=37
.step run=38
.step run=39
.step run=40
.step run=41
.step run=42
.step run=43
.step run=44
.step run=45
.step run=46
.step run=47
.step run=48
.step run=49
.step run=50
.step run=51
.step run=52
.step run=53
.step run=54
.step run=55
.step run=56
.step run=57
.step run=58
.step run=59
.step run=60
.step run=61
.step run=62
.step run=63
.step run=64
.step run=65
.step run=66
.step run=67
.step run=68
.step run=69
.step run=70
.step run=71
.step run=72
.step run=73
.step run=74
.step run=75
.step run=76
.step run=77
.step run=78
.step run=79
.step run=80
.step run=81
.step run=82
.step run=83
.step run=84
.step run=85
.step run=86
.step run=87
.step run=88
.step run=89
.step run=90
.step run=91
.step run=92
.step run=93
.step run=94
.step run=95
.step run=96
.step run=97
.step run=98
.step run=99
.step run=100
.step run=101
.step run=102
.step run=103
.step run=104
.step run=105
.step run=106
.step run=107
.step run=108
.step run=109
.step run=110
.step run=111
.step run=112
.step run=113
.step run=114
.step run=115
.step run=116
.step run=117
.step run=118
.step run=119
.step run=120
.step run=121
.step run=122
.step run=123
.step run=124
.step run=125
.step run=126
.step run=127
.step run=128
.step run=129
.step run=130
.step run=131
.step run=132
.step run=133
.step run=134
.step run=135
.step run=136
.step run=137
.step run=138
.step run=139
.step run=140
.step run=141
.step run=142
.step run=143
.step run=144
.step run=145
.step run=146
.step run=147
.step run=148
.step run=149
.step run=150
.step run=151
.step run=152
.step run=153
.step run=154
.step run=155
.step run=156
.step run=157
.step run=158
.step run=159
.step run=160
.step run=161
.step run=162
.step run=163
.step run=164
.step run=165
.step run=166
.step run=167
.step run=168
.step run=169
.step run=170
.step run=171
.step run=172
.step run=173
.step run=174
.step run=175
.step run=176
.step run=177
.step run=178
.step run=179
.step run=180
.step run=181
.step run=182
.step run=183
.step run=184
.step run=185
.step run=186
.step run=187
.step run=188
.step run=189
.step run=190
.step run=191
.step run=192
.step run=193
.step run=194
.step run=195
.step run=196
.step run=197
.step run=198
.step run=199
.step run=200
.step run=201
.step run=202
.step run=203
.step run=204
.step run=205
.step run=206
.step run=207
.step run=208
.step run=209
.step run=210
.step run=211
.step run=212
.step run=213
.step run=214
.step run=215
.step run=216
.step run=217
.step run=218
.step run=219
.step run=220
.step run=221
.step run=222
.step run=223
.step run=224
.step run=225
.step run=226
.step run=227
.step run=228
.step run=229
.step run=230
.step run=231
.step run=232
.step run=233
.step run=234
.step run=235
.step run=236
.step run=237
.step run=238
.step run=239
.step run=240
.step run=241
.step run=242
.step run=243
.step run=244
.step run=245
.step run=246
.step run=247
.step run=248
.step run=249
.step run=250
.step run=251
.step run=252
.step run=253
.step run=254
.step run=255
.step run=256
.step run=257
.step run=258
.step run=259
.step run=260
.step run=261
.step run=262
.step run=263
.step run=264
.step run=265
.step run=266
.step run=267
.step run=268
.step run=269
.step run=270
.step run=271
.step run=272
.step run=273
.step run=274
.step run=275
.step run=276
.step run=277
.step run=278
.step run=279
.step run=280
.step run=281
.step run=282
.step run=283
.step run=284
.step run=285
.step run=286
.step run=287
.step run=288
.step run=289
.step run=290
.step run=291
.step run=292
.step run=293
.step run=294
.step run=295
.step run=296
.step run=297
.step run=298
.step run=299
.step run=300
.step run=301
.step run=302
.step run=303
.step run=304
.step run=305
.step run=306
.step run=307
.step run=308
.step run=309
.step run=310
.step run=311
.step run=312
.step run=313
.step run=314
.step run=315
.step run=316
.step run=317
.step run=318
.step run=319
.step run=320
.step run=321
.step run=322
.step run=323
.step run=324
.step run=325
.step run=326
.step run=327
.step run=328
.step run=329
.step run=330
.step run=331
.step run=332
.step run=333
.step run=334
.step run=335
.step run=336
.step run=337
.step run=338
.step run=339
.step run=340
.step run=341
.step run=342
.step run=343
.step run=344
.step run=345
.step run=346
.step run=347
.step run=348
.step run=349
.step run=350
.step run=351
.step run=352
.step run=353
.step run=354
.step run=355
.step run=356
.step run=357
.step run=358
.step run=359
.step run=360
.step run=361
.step run=362
.step run=363
.step run=364
.step run=365
.step run=366
.step run=367
.step run=368
.step run=369
.step run=370
.step run=371
.step run=372
.step run=373
.step run=374
.step run=375
.step run=376
.step run=377
.step run=378
.step run=379
.step run=380
.step run=381
.step run=382
.step run=383
.step run=384
.step run=385
.step run=386
.step run=387
.step run=388
.step run=389
.step run=390
.step run=391
.step run=392
.step run=393
.step run=394
.step run=395
.step run=396
.step run=397
.step run=398
.step run=399
.step run=400


Measurement: snm_max
  step	MAX(0.707*v(v1)-0.707*v(v2))	FROM	TO
     1	0.0588073	-0.17675	0.17675
     2	0.0591684	-0.17675	0.17675
     3	0.059615	-0.17675	0.17675
     4	0.0590838	-0.17675	0.17675
     5	0.0491551	-0.17675	0.17675
     6	0.0584519	-0.17675	0.17675
     7	0.0590585	-0.17675	0.17675
     8	0.0534437	-0.17675	0.17675
     9	0.0570211	-0.17675	0.17675
    10	0.0591442	-0.17675	0.17675
    11	0.0556642	-0.17675	0.17675
    12	0.0581058	-0.17675	0.17675
    13	0.0572222	-0.17675	0.17675
    14	0.059242	-0.17675	0.17675
    15	0.0594315	-0.17675	0.17675
    16	0.0588951	-0.17675	0.17675
    17	0.0590349	-0.17675	0.17675
    18	0.0586952	-0.17675	0.17675
    19	0.0592825	-0.17675	0.17675
    20	0.0584252	-0.17675	0.17675
    21	0.0596105	-0.17675	0.17675
    22	0.0582347	-0.17675	0.17675
    23	0.0586298	-0.17675	0.17675
    24	0.0585581	-0.17675	0.17675
    25	0.0574365	-0.17675	0.17675
    26	0.059455	-0.17675	0.17675
    27	0.0519834	-0.17675	0.17675
    28	0.0528651	-0.17675	0.17675
    29	0.0590215	-0.17675	0.17675
    30	0.0594055	-0.17675	0.17675
    31	0.0592421	-0.17675	0.17675
    32	0.0585966	-0.17675	0.17675
    33	0.0594237	-0.17675	0.17675
    34	0.0590298	-0.17675	0.17675
    35	0.056987	-0.17675	0.17675
    36	0.0592423	-0.17675	0.17675
    37	0.0583762	-0.17675	0.17675
    38	0.0589963	-0.17675	0.17675
    39	0.0587309	-0.17675	0.17675
    40	0.0581555	-0.17675	0.17675
    41	0.0573423	-0.17675	0.17675
    42	0.0581811	-0.17675	0.17675
    43	0.0589703	-0.17675	0.17675
    44	0.0581422	-0.17675	0.17675
    45	0.0588747	-0.17675	0.17675
    46	0.0592097	-0.17675	0.17675
    47	0.0561686	-0.17675	0.17675
    48	0.0527785	-0.17675	0.17675
    49	0.0593811	-0.17675	0.17675
    50	0.0530871	-0.17675	0.17675
    51	0.0582681	-0.17675	0.17675
    52	0.0556199	-0.17675	0.17675
    53	0.0579806	-0.17675	0.17675
    54	0.0560412	-0.17675	0.17675
    55	0.0578056	-0.17675	0.17675
    56	0.0568333	-0.17675	0.17675
    57	0.0592946	-0.17675	0.17675
    58	0.0577303	-0.17675	0.17675
    59	0.0545366	-0.17675	0.17675
    60	0.0584472	-0.17675	0.17675
    61	0.0593656	-0.17675	0.17675
    62	0.0595944	-0.17675	0.17675
    63	0.0564754	-0.17675	0.17675
    64	0.0577892	-0.17675	0.17675
    65	0.0582245	-0.17675	0.17675
    66	0.0559362	-0.17675	0.17675
    67	0.0595389	-0.17675	0.17675
    68	0.0588564	-0.17675	0.17675
    69	0.0595776	-0.17675	0.17675
    70	0.0527423	-0.17675	0.17675
    71	0.0582869	-0.17675	0.17675
    72	0.0594757	-0.17675	0.17675
    73	0.0595076	-0.17675	0.17675
    74	0.058668	-0.17675	0.17675
    75	0.0559272	-0.17675	0.17675
    76	0.0591372	-0.17675	0.17675
    77	0.0593528	-0.17675	0.17675
    78	0.0553899	-0.17675	0.17675
    79	0.0544161	-0.17675	0.17675
    80	0.0582754	-0.17675	0.17675
    81	0.0576928	-0.17675	0.17675
    82	0.0590517	-0.17675	0.17675
    83	0.058878	-0.17675	0.17675
    84	0.0592545	-0.17675	0.17675
    85	0.0589967	-0.17675	0.17675
    86	0.0587207	-0.17675	0.17675
    87	0.0571248	-0.17675	0.17675
    88	0.0588863	-0.17675	0.17675
    89	0.0554569	-0.17675	0.17675
    90	0.0579421	-0.17675	0.17675
    91	0.0572134	-0.17675	0.17675
    92	0.0589968	-0.17675	0.17675
    93	0.058162	-0.17675	0.17675
    94	0.0586692	-0.17675	0.17675
    95	0.0567792	-0.17675	0.17675
    96	0.05818	-0.17675	0.17675
    97	0.0590384	-0.17675	0.17675
    98	0.0585639	-0.17675	0.17675
    99	0.0594474	-0.17675	0.17675
   100	0.0582156	-0.17675	0.17675
   101	0.058284	-0.17675	0.17675
   102	0.0585495	-0.17675	0.17675
   103	0.0594693	-0.17675	0.17675
   104	0.0585558	-0.17675	0.17675
   105	0.0595035	-0.17675	0.17675
   106	0.0576385	-0.17675	0.17675
   107	0.0587347	-0.17675	0.17675
   108	0.0583653	-0.17675	0.17675
   109	0.0586787	-0.17675	0.17675
   110	0.0530367	-0.17675	0.17675
   111	0.0564375	-0.17675	0.17675
   112	0.0552846	-0.17675	0.17675
   113	0.0592828	-0.17675	0.17675
   114	0.0594151	-0.17675	0.17675
   115	0.0544778	-0.17675	0.17675
   116	0.05424	-0.17675	0.17675
   117	0.0585542	-0.17675	0.17675
   118	0.0581057	-0.17675	0.17675
   119	0.0565788	-0.17675	0.17675
   120	0.0583824	-0.17675	0.17675
   121	0.0592255	-0.17675	0.17675
   122	0.058535	-0.17675	0.17675
   123	0.0580555	-0.17675	0.17675
   124	0.05925	-0.17675	0.17675
   125	0.0590581	-0.17675	0.17675
   126	0.0575836	-0.17675	0.17675
   127	0.0573293	-0.17675	0.17675
   128	0.0591298	-0.17675	0.17675
   129	0.0564285	-0.17675	0.17675
   130	0.0590395	-0.17675	0.17675
   131	0.0567153	-0.17675	0.17675
   132	0.0591657	-0.17675	0.17675
   133	0.0549715	-0.17675	0.17675
   134	0.0595294	-0.17675	0.17675
   135	0.0594491	-0.17675	0.17675
   136	0.0568903	-0.17675	0.17675
   137	0.0565677	-0.17675	0.17675
   138	0.0587632	-0.17675	0.17675
   139	0.0570492	-0.17675	0.17675
   140	0.0577065	-0.17675	0.17675
   141	0.0594906	-0.17675	0.17675
   142	0.0551251	-0.17675	0.17675
   143	0.0568236	-0.17675	0.17675
   144	0.0595579	-0.17675	0.17675
   145	0.0577837	-0.17675	0.17675
   146	0.056279	-0.17675	0.17675
   147	0.0588684	-0.17675	0.17675
   148	0.0585009	-0.17675	0.17675
   149	0.0590009	-0.17675	0.17675
   150	0.059528	-0.17675	0.17675
   151	0.0582333	-0.17675	0.17675
   152	0.0570386	-0.17675	0.17675
   153	0.0595291	-0.17675	0.17675
   154	0.0573456	-0.17675	0.17675
   155	0.0588273	-0.17675	0.17675
   156	0.0592419	-0.17675	0.17675
   157	0.0588756	-0.17675	0.17675
   158	0.0589979	-0.17675	0.17675
   159	0.0575011	-0.17675	0.17675
   160	0.0592512	-0.17675	0.17675
   161	0.0574304	-0.17675	0.17675
   162	0.0580027	-0.17675	0.17675
   163	0.0591061	-0.17675	0.17675
   164	0.057197	-0.17675	0.17675
   165	0.054333	-0.17675	0.17675
   166	0.0588219	-0.17675	0.17675
   167	0.0579532	-0.17675	0.17675
   168	0.0586863	-0.17675	0.17675
   169	0.0427396	-0.17675	0.17675
   170	0.0578996	-0.17675	0.17675
   171	0.0589317	-0.17675	0.17675
   172	0.0549853	-0.17675	0.17675
   173	0.0587025	-0.17675	0.17675
   174	0.0561207	-0.17675	0.17675
   175	0.0556642	-0.17675	0.17675
   176	0.0280653	-0.17675	0.17675
   177	0.0575849	-0.17675	0.17675
   178	0.0594646	-0.17675	0.17675
   179	0.0584236	-0.17675	0.17675
   180	0.0578998	-0.17675	0.17675
   181	0.059358	-0.17675	0.17675
   182	0.058653	-0.17675	0.17675
   183	0.0587552	-0.17675	0.17675
   184	0.0592591	-0.17675	0.17675
   185	0.0590349	-0.17675	0.17675
   186	0.0567058	-0.17675	0.17675
   187	0.0550836	-0.17675	0.17675
   188	0.059202	-0.17675	0.17675
   189	0.0544744	-0.17675	0.17675
   190	0.0579108	-0.17675	0.17675
   191	0.0585938	-0.17675	0.17675
   192	0.0586966	-0.17675	0.17675
   193	0.055975	-0.17675	0.17675
   194	0.0586586	-0.17675	0.17675
   195	0.0591373	-0.17675	0.17675
   196	0.0592747	-0.17675	0.17675
   197	0.0593226	-0.17675	0.17675
   198	0.056726	-0.17675	0.17675
   199	0.0592347	-0.17675	0.17675
   200	0.0587285	-0.17675	0.17675
   201	0.0582095	-0.17675	0.17675
   202	0.0594891	-0.17675	0.17675
   203	0.0544233	-0.17675	0.17675
   204	0.0578414	-0.17675	0.17675
   205	0.0587026	-0.17675	0.17675
   206	0.054407	-0.17675	0.17675
   207	0.0579825	-0.17675	0.17675
   208	0.0592994	-0.17675	0.17675
   209	0.056591	-0.17675	0.17675
   210	0.0593131	-0.17675	0.17675
   211	0.058481	-0.17675	0.17675
   212	0.0591207	-0.17675	0.17675
   213	0.0585942	-0.17675	0.17675
   214	0.0579132	-0.17675	0.17675
   215	0.059095	-0.17675	0.17675
   216	0.0591636	-0.17675	0.17675
   217	0.059213	-0.17675	0.17675
   218	0.0586561	-0.17675	0.17675
   219	0.0594805	-0.17675	0.17675
   220	0.0534317	-0.17675	0.17675
   221	0.0578	-0.17675	0.17675
   222	0.0547877	-0.17675	0.17675
   223	0.0539176	-0.17675	0.17675
   224	0.058585	-0.17675	0.17675
   225	0.0594202	-0.17675	0.17675
   226	0.059599	-0.17675	0.17675
   227	0.0560472	-0.17675	0.17675
   228	0.0582557	-0.17675	0.17675
   229	0.0579876	-0.17675	0.17675
   230	0.0561295	-0.17675	0.17675
   231	0.0591374	-0.17675	0.17675
   232	0.0591228	-0.17675	0.17675
   233	0.0595349	-0.17675	0.17675
   234	0.0581111	-0.17675	0.17675
   235	0.0589247	-0.17675	0.17675
   236	0.0537137	-0.17675	0.17675
   237	0.0552442	-0.17675	0.17675
   238	0.0594934	-0.17675	0.17675
   239	0.0594388	-0.17675	0.17675
   240	0.0593393	-0.17675	0.17675
   241	0.0590363	-0.17675	0.17675
   242	0.0574084	-0.17675	0.17675
   243	0.0590478	-0.17675	0.17675
   244	0.0589643	-0.17675	0.17675
   245	0.0557077	-0.17675	0.17675
   246	0.0575985	-0.17675	0.17675
   247	0.0590003	-0.17675	0.17675
   248	0.0588867	-0.17675	0.17675
   249	0.0565907	-0.17675	0.17675
   250	0.0564837	-0.17675	0.17675
   251	0.0549586	-0.17675	0.17675
   252	0.0593305	-0.17675	0.17675
   253	0.0589923	-0.17675	0.17675
   254	0.0564016	-0.17675	0.17675
   255	0.0594437	-0.17675	0.17675
   256	0.0595112	-0.17675	0.17675
   257	0.053778	-0.17675	0.17675
   258	0.0573541	-0.17675	0.17675
   259	0.0592412	-0.17675	0.17675
   260	0.0588349	-0.17675	0.17675
   261	0.0589342	-0.17675	0.17675
   262	0.0508785	-0.17675	0.17675
   263	0.0566304	-0.17675	0.17675
   264	0.0584766	-0.17675	0.17675
   265	0.0542388	-0.17675	0.17675
   266	0.0584804	-0.17675	0.17675
   267	0.0591254	-0.17675	0.17675
   268	0.0578518	-0.17675	0.17675
   269	0.0590647	-0.17675	0.17675
   270	0.056522	-0.17675	0.17675
   271	0.0551173	-0.17675	0.17675
   272	0.05705	-0.17675	0.17675
   273	0.0569499	-0.17675	0.17675
   274	0.0577515	-0.17675	0.17675
   275	0.0589231	-0.17675	0.17675
   276	0.0549577	-0.17675	0.17675
   277	0.0592633	-0.17675	0.17675
   278	0.0580694	-0.17675	0.17675
   279	0.0573386	-0.17675	0.17675
   280	0.0580709	-0.17675	0.17675
   281	0.0588615	-0.17675	0.17675
   282	0.0590891	-0.17675	0.17675
   283	0.0588779	-0.17675	0.17675
   284	0.0587673	-0.17675	0.17675
   285	0.0582253	-0.17675	0.17675
   286	0.0590321	-0.17675	0.17675
   287	0.0594734	-0.17675	0.17675
   288	0.0542617	-0.17675	0.17675
   289	0.0593426	-0.17675	0.17675
   290	0.058918	-0.17675	0.17675
   291	0.0537719	-0.17675	0.17675
   292	0.0551614	-0.17675	0.17675
   293	0.0590462	-0.17675	0.17675
   294	0.0593239	-0.17675	0.17675
   295	0.0532141	-0.17675	0.17675
   296	0.0562704	-0.17675	0.17675
   297	0.0518413	-0.17675	0.17675
   298	0.0587814	-0.17675	0.17675
   299	0.0500289	-0.17675	0.17675
   300	0.0574835	-0.17675	0.17675
   301	0.0593341	-0.17675	0.17675
   302	0.0544201	-0.17675	0.17675
   303	0.0590793	-0.17675	0.17675
   304	0.0595357	-0.17675	0.17675
   305	0.0531152	-0.17675	0.17675
   306	0.0592153	-0.17675	0.17675
   307	0.0589821	-0.17675	0.17675
   308	0.0594073	-0.17675	0.17675
   309	0.0588059	-0.17675	0.17675
   310	0.0593227	-0.17675	0.17675
   311	0.0571449	-0.17675	0.17675
   312	0.0582897	-0.17675	0.17675
   313	0.0582818	-0.17675	0.17675
   314	0.0531555	-0.17675	0.17675
   315	0.0592665	-0.17675	0.17675
   316	0.0593302	-0.17675	0.17675
   317	0.0575734	-0.17675	0.17675
   318	0.0590486	-0.17675	0.17675
   319	0.0481336	-0.17675	0.17675
   320	0.0584261	-0.17675	0.17675
   321	0.0595573	-0.17675	0.17675
   322	0.0578426	-0.17675	0.17675
   323	0.0583873	-0.17675	0.17675
   324	0.0594767	-0.17675	0.17675
   325	0.0578997	-0.17675	0.17675
   326	0.0592762	-0.17675	0.17675
   327	0.0559789	-0.17675	0.17675
   328	0.0529063	-0.17675	0.17675
   329	0.0562746	-0.17675	0.17675
   330	0.056697	-0.17675	0.17675
   331	0.0588035	-0.17675	0.17675
   332	0.0555906	-0.17675	0.17675
   333	0.0577388	-0.17675	0.17675
   334	0.0582919	-0.17675	0.17675
   335	0.0574964	-0.17675	0.17675
   336	0.0590783	-0.17675	0.17675
   337	0.0576386	-0.17675	0.17675
   338	0.0572958	-0.17675	0.17675
   339	0.0542623	-0.17675	0.17675
   340	0.0593906	-0.17675	0.17675
   341	0.0564546	-0.17675	0.17675
   342	0.0595606	-0.17675	0.17675
   343	0.0593574	-0.17675	0.17675
   344	0.0595274	-0.17675	0.17675
   345	0.0581075	-0.17675	0.17675
   346	0.057586	-0.17675	0.17675
   347	0.0593189	-0.17675	0.17675
   348	0.0496311	-0.17675	0.17675
   349	0.058207	-0.17675	0.17675
   350	0.0576951	-0.17675	0.17675
   351	0.0586701	-0.17675	0.17675
   352	0.0578723	-0.17675	0.17675
   353	0.0590086	-0.17675	0.17675
   354	0.059194	-0.17675	0.17675
   355	0.057974	-0.17675	0.17675
   356	0.0560362	-0.17675	0.17675
   357	0.0575531	-0.17675	0.17675
   358	0.056004	-0.17675	0.17675
   359	0.0585012	-0.17675	0.17675
   360	0.0586294	-0.17675	0.17675
   361	0.0458008	-0.17675	0.17675
   362	0.0582484	-0.17675	0.17675
   363	0.0595526	-0.17675	0.17675
   364	0.0587496	-0.17675	0.17675
   365	0.0584178	-0.17675	0.17675
   366	0.0584931	-0.17675	0.17675
   367	0.0589879	-0.17675	0.17675
   368	0.0584673	-0.17675	0.17675
   369	0.0578617	-0.17675	0.17675
   370	0.0588226	-0.17675	0.17675
   371	0.0563781	-0.17675	0.17675
   372	0.0577624	-0.17675	0.17675
   373	0.0551482	-0.17675	0.17675
   374	0.0584078	-0.17675	0.17675
   375	0.0561248	-0.17675	0.17675
   376	0.058772	-0.17675	0.17675
   377	0.0558845	-0.17675	0.17675
   378	0.0591757	-0.17675	0.17675
   379	0.0509654	-0.17675	0.17675
   380	0.0589298	-0.17675	0.17675
   381	0.0574716	-0.17675	0.17675
   382	0.0550178	-0.17675	0.17675
   383	0.0554978	-0.17675	0.17675
   384	0.0570899	-0.17675	0.17675
   385	0.0510232	-0.17675	0.17675
   386	0.0589537	-0.17675	0.17675
   387	0.0579115	-0.17675	0.17675
   388	0.0561534	-0.17675	0.17675
   389	0.0586432	-0.17675	0.17675
   390	0.0586027	-0.17675	0.17675
   391	0.0462712	-0.17675	0.17675
   392	0.0561453	-0.17675	0.17675
   393	0.0577681	-0.17675	0.17675
   394	0.0577699	-0.17675	0.17675
   395	0.0585722	-0.17675	0.17675
   396	0.0556371	-0.17675	0.17675
   397	0.0554763	-0.17675	0.17675
   398	0.0588661	-0.17675	0.17675
   399	0.0591225	-0.17675	0.17675
   400	0.0575331	-0.17675	0.17675

Measurement: snm_min
  step	MIN(0.707*v(v1)-0.707*v(v2))	FROM	TO
     1	-0.0588073	-0.17675	0.17675
     2	-0.0591684	-0.17675	0.17675
     3	-0.059615	-0.17675	0.17675
     4	-0.0590838	-0.17675	0.17675
     5	-0.0491551	-0.17675	0.17675
     6	-0.0584519	-0.17675	0.17675
     7	-0.0590585	-0.17675	0.17675
     8	-0.0534437	-0.17675	0.17675
     9	-0.0570211	-0.17675	0.17675
    10	-0.0591442	-0.17675	0.17675
    11	-0.0556641	-0.17675	0.17675
    12	-0.0581058	-0.17675	0.17675
    13	-0.0572222	-0.17675	0.17675
    14	-0.059242	-0.17675	0.17675
    15	-0.0594315	-0.17675	0.17675
    16	-0.0588951	-0.17675	0.17675
    17	-0.0590349	-0.17675	0.17675
    18	-0.0586952	-0.17675	0.17675
    19	-0.0592825	-0.17675	0.17675
    20	-0.0584252	-0.17675	0.17675
    21	-0.0596105	-0.17675	0.17675
    22	-0.0582347	-0.17675	0.17675
    23	-0.0586298	-0.17675	0.17675
    24	-0.0585581	-0.17675	0.17675
    25	-0.0574365	-0.17675	0.17675
    26	-0.059455	-0.17675	0.17675
    27	-0.0519834	-0.17675	0.17675
    28	-0.0528651	-0.17675	0.17675
    29	-0.0590215	-0.17675	0.17675
    30	-0.0594055	-0.17675	0.17675
    31	-0.0592421	-0.17675	0.17675
    32	-0.0585966	-0.17675	0.17675
    33	-0.0594237	-0.17675	0.17675
    34	-0.0590298	-0.17675	0.17675
    35	-0.056987	-0.17675	0.17675
    36	-0.0592423	-0.17675	0.17675
    37	-0.0583762	-0.17675	0.17675
    38	-0.0589963	-0.17675	0.17675
    39	-0.0587309	-0.17675	0.17675
    40	-0.0581555	-0.17675	0.17675
    41	-0.0573423	-0.17675	0.17675
    42	-0.0581811	-0.17675	0.17675
    43	-0.0589703	-0.17675	0.17675
    44	-0.0581422	-0.17675	0.17675
    45	-0.0588747	-0.17675	0.17675
    46	-0.0592097	-0.17675	0.17675
    47	-0.0561686	-0.17675	0.17675
    48	-0.0527785	-0.17675	0.17675
    49	-0.0593811	-0.17675	0.17675
    50	-0.0530871	-0.17675	0.17675
    51	-0.0582681	-0.17675	0.17675
    52	-0.0556198	-0.17675	0.17675
    53	-0.0579806	-0.17675	0.17675
    54	-0.0560411	-0.17675	0.17675
    55	-0.0578056	-0.17675	0.17675
    56	-0.0568334	-0.17675	0.17675
    57	-0.0592946	-0.17675	0.17675
    58	-0.0577303	-0.17675	0.17675
    59	-0.0545366	-0.17675	0.17675
    60	-0.0584472	-0.17675	0.17675
    61	-0.0593656	-0.17675	0.17675
    62	-0.0595944	-0.17675	0.17675
    63	-0.0564754	-0.17675	0.17675
    64	-0.0577892	-0.17675	0.17675
    65	-0.0582245	-0.17675	0.17675
    66	-0.0559362	-0.17675	0.17675
    67	-0.0595389	-0.17675	0.17675
    68	-0.0588564	-0.17675	0.17675
    69	-0.0595776	-0.17675	0.17675
    70	-0.0527423	-0.17675	0.17675
    71	-0.0582869	-0.17675	0.17675
    72	-0.0594757	-0.17675	0.17675
    73	-0.0595076	-0.17675	0.17675
    74	-0.058668	-0.17675	0.17675
    75	-0.0559272	-0.17675	0.17675
    76	-0.0591372	-0.17675	0.17675
    77	-0.0593528	-0.17675	0.17675
    78	-0.0553899	-0.17675	0.17675
    79	-0.0544161	-0.17675	0.17675
    80	-0.0582754	-0.17675	0.17675
    81	-0.0576928	-0.17675	0.17675
    82	-0.0590517	-0.17675	0.17675
    83	-0.058878	-0.17675	0.17675
    84	-0.0592545	-0.17675	0.17675
    85	-0.0589967	-0.17675	0.17675
    86	-0.0587207	-0.17675	0.17675
    87	-0.0571248	-0.17675	0.17675
    88	-0.0588863	-0.17675	0.17675
    89	-0.0554569	-0.17675	0.17675
    90	-0.0579421	-0.17675	0.17675
    91	-0.0572134	-0.17675	0.17675
    92	-0.0589968	-0.17675	0.17675
    93	-0.058162	-0.17675	0.17675
    94	-0.0586692	-0.17675	0.17675
    95	-0.0567792	-0.17675	0.17675
    96	-0.05818	-0.17675	0.17675
    97	-0.0590384	-0.17675	0.17675
    98	-0.0585639	-0.17675	0.17675
    99	-0.0594474	-0.17675	0.17675
   100	-0.0582156	-0.17675	0.17675
   101	-0.058284	-0.17675	0.17675
   102	-0.0585496	-0.17675	0.17675
   103	-0.0594693	-0.17675	0.17675
   104	-0.0585558	-0.17675	0.17675
   105	-0.0595035	-0.17675	0.17675
   106	-0.0576385	-0.17675	0.17675
   107	-0.0587347	-0.17675	0.17675
   108	-0.0583653	-0.17675	0.17675
   109	-0.0586787	-0.17675	0.17675
   110	-0.0530367	-0.17675	0.17675
   111	-0.0564375	-0.17675	0.17675
   112	-0.0552846	-0.17675	0.17675
   113	-0.0592828	-0.17675	0.17675
   114	-0.0594151	-0.17675	0.17675
   115	-0.0544778	-0.17675	0.17675
   116	-0.05424	-0.17675	0.17675
   117	-0.0585542	-0.17675	0.17675
   118	-0.0581057	-0.17675	0.17675
   119	-0.0565788	-0.17675	0.17675
   120	-0.0583824	-0.17675	0.17675
   121	-0.0592255	-0.17675	0.17675
   122	-0.058535	-0.17675	0.17675
   123	-0.0580555	-0.17675	0.17675
   124	-0.05925	-0.17675	0.17675
   125	-0.0590581	-0.17675	0.17675
   126	-0.0575836	-0.17675	0.17675
   127	-0.0573293	-0.17675	0.17675
   128	-0.0591298	-0.17675	0.17675
   129	-0.0564284	-0.17675	0.17675
   130	-0.0590395	-0.17675	0.17675
   131	-0.0567154	-0.17675	0.17675
   132	-0.0591657	-0.17675	0.17675
   133	-0.0549715	-0.17675	0.17675
   134	-0.0595294	-0.17675	0.17675
   135	-0.0594491	-0.17675	0.17675
   136	-0.0568903	-0.17675	0.17675
   137	-0.0565677	-0.17675	0.17675
   138	-0.0587632	-0.17675	0.17675
   139	-0.0570492	-0.17675	0.17675
   140	-0.0577065	-0.17675	0.17675
   141	-0.0594906	-0.17675	0.17675
   142	-0.0551251	-0.17675	0.17675
   143	-0.0568236	-0.17675	0.17675
   144	-0.0595579	-0.17675	0.17675
   145	-0.0577837	-0.17675	0.17675
   146	-0.056279	-0.17675	0.17675
   147	-0.0588684	-0.17675	0.17675
   148	-0.0585009	-0.17675	0.17675
   149	-0.0590009	-0.17675	0.17675
   150	-0.059528	-0.17675	0.17675
   151	-0.0582333	-0.17675	0.17675
   152	-0.0570386	-0.17675	0.17675
   153	-0.0595291	-0.17675	0.17675
   154	-0.0573456	-0.17675	0.17675
   155	-0.0588273	-0.17675	0.17675
   156	-0.0592419	-0.17675	0.17675
   157	-0.0588756	-0.17675	0.17675
   158	-0.0589979	-0.17675	0.17675
   159	-0.0575011	-0.17675	0.17675
   160	-0.0592512	-0.17675	0.17675
   161	-0.0574304	-0.17675	0.17675
   162	-0.0580027	-0.17675	0.17675
   163	-0.0591061	-0.17675	0.17675
   164	-0.057197	-0.17675	0.17675
   165	-0.054333	-0.17675	0.17675
   166	-0.0588219	-0.17675	0.17675
   167	-0.0579532	-0.17675	0.17675
   168	-0.0586863	-0.17675	0.17675
   169	-0.0427395	-0.17675	0.17675
   170	-0.0578996	-0.17675	0.17675
   171	-0.0589317	-0.17675	0.17675
   172	-0.0549854	-0.17675	0.17675
   173	-0.0587025	-0.17675	0.17675
   174	-0.0561207	-0.17675	0.17675
   175	-0.0556642	-0.17675	0.17675
   176	-0.0280988	-0.17675	0.17675
   177	-0.0575849	-0.17675	0.17675
   178	-0.0594646	-0.17675	0.17675
   179	-0.0584236	-0.17675	0.17675
   180	-0.0578998	-0.17675	0.17675
   181	-0.059358	-0.17675	0.17675
   182	-0.058653	-0.17675	0.17675
   183	-0.0587552	-0.17675	0.17675
   184	-0.0592591	-0.17675	0.17675
   185	-0.0590349	-0.17675	0.17675
   186	-0.0567058	-0.17675	0.17675
   187	-0.0550836	-0.17675	0.17675
   188	-0.059202	-0.17675	0.17675
   189	-0.0544744	-0.17675	0.17675
   190	-0.0579108	-0.17675	0.17675
   191	-0.0585938	-0.17675	0.17675
   192	-0.0586966	-0.17675	0.17675
   193	-0.055975	-0.17675	0.17675
   194	-0.0586586	-0.17675	0.17675
   195	-0.0591373	-0.17675	0.17675
   196	-0.0592748	-0.17675	0.17675
   197	-0.0593226	-0.17675	0.17675
   198	-0.056726	-0.17675	0.17675
   199	-0.0592347	-0.17675	0.17675
   200	-0.0587285	-0.17675	0.17675
   201	-0.0582095	-0.17675	0.17675
   202	-0.0594891	-0.17675	0.17675
   203	-0.0544232	-0.17675	0.17675
   204	-0.0578414	-0.17675	0.17675
   205	-0.0587026	-0.17675	0.17675
   206	-0.054407	-0.17675	0.17675
   207	-0.0579825	-0.17675	0.17675
   208	-0.0592994	-0.17675	0.17675
   209	-0.056591	-0.17675	0.17675
   210	-0.0593131	-0.17675	0.17675
   211	-0.058481	-0.17675	0.17675
   212	-0.0591207	-0.17675	0.17675
   213	-0.0585942	-0.17675	0.17675
   214	-0.0579132	-0.17675	0.17675
   215	-0.059095	-0.17675	0.17675
   216	-0.0591636	-0.17675	0.17675
   217	-0.059213	-0.17675	0.17675
   218	-0.0586561	-0.17675	0.17675
   219	-0.0594805	-0.17675	0.17675
   220	-0.0534317	-0.17675	0.17675
   221	-0.0578	-0.17675	0.17675
   222	-0.0547876	-0.17675	0.17675
   223	-0.0539176	-0.17675	0.17675
   224	-0.058585	-0.17675	0.17675
   225	-0.0594202	-0.17675	0.17675
   226	-0.059599	-0.17675	0.17675
   227	-0.0560472	-0.17675	0.17675
   228	-0.0582557	-0.17675	0.17675
   229	-0.0579876	-0.17675	0.17675
   230	-0.0561295	-0.17675	0.17675
   231	-0.0591374	-0.17675	0.17675
   232	-0.0591228	-0.17675	0.17675
   233	-0.0595349	-0.17675	0.17675
   234	-0.0581111	-0.17675	0.17675
   235	-0.0589247	-0.17675	0.17675
   236	-0.0537137	-0.17675	0.17675
   237	-0.0552442	-0.17675	0.17675
   238	-0.0594934	-0.17675	0.17675
   239	-0.0594388	-0.17675	0.17675
   240	-0.0593393	-0.17675	0.17675
   241	-0.0590363	-0.17675	0.17675
   242	-0.0574084	-0.17675	0.17675
   243	-0.0590478	-0.17675	0.17675
   244	-0.0589643	-0.17675	0.17675
   245	-0.0557077	-0.17675	0.17675
   246	-0.0575985	-0.17675	0.17675
   247	-0.0590003	-0.17675	0.17675
   248	-0.0588867	-0.17675	0.17675
   249	-0.0565907	-0.17675	0.17675
   250	-0.0564837	-0.17675	0.17675
   251	-0.0549587	-0.17675	0.17675
   252	-0.0593305	-0.17675	0.17675
   253	-0.0589923	-0.17675	0.17675
   254	-0.0564016	-0.17675	0.17675
   255	-0.0594437	-0.17675	0.17675
   256	-0.0595112	-0.17675	0.17675
   257	-0.053778	-0.17675	0.17675
   258	-0.0573541	-0.17675	0.17675
   259	-0.0592412	-0.17675	0.17675
   260	-0.0588349	-0.17675	0.17675
   261	-0.0589342	-0.17675	0.17675
   262	-0.0508785	-0.17675	0.17675
   263	-0.0566304	-0.17675	0.17675
   264	-0.0584766	-0.17675	0.17675
   265	-0.0542388	-0.17675	0.17675
   266	-0.0584804	-0.17675	0.17675
   267	-0.0591254	-0.17675	0.17675
   268	-0.0578518	-0.17675	0.17675
   269	-0.0590647	-0.17675	0.17675
   270	-0.056522	-0.17675	0.17675
   271	-0.0551172	-0.17675	0.17675
   272	-0.05705	-0.17675	0.17675
   273	-0.0569498	-0.17675	0.17675
   274	-0.0577515	-0.17675	0.17675
   275	-0.0589231	-0.17675	0.17675
   276	-0.0549577	-0.17675	0.17675
   277	-0.0592633	-0.17675	0.17675
   278	-0.0580694	-0.17675	0.17675
   279	-0.0573386	-0.17675	0.17675
   280	-0.0580709	-0.17675	0.17675
   281	-0.0588615	-0.17675	0.17675
   282	-0.0590891	-0.17675	0.17675
   283	-0.0588779	-0.17675	0.17675
   284	-0.0587673	-0.17675	0.17675
   285	-0.0582253	-0.17675	0.17675
   286	-0.0590321	-0.17675	0.17675
   287	-0.0594734	-0.17675	0.17675
   288	-0.0542616	-0.17675	0.17675
   289	-0.0593426	-0.17675	0.17675
   290	-0.058918	-0.17675	0.17675
   291	-0.0537719	-0.17675	0.17675
   292	-0.0551614	-0.17675	0.17675
   293	-0.0590462	-0.17675	0.17675
   294	-0.0593239	-0.17675	0.17675
   295	-0.0532141	-0.17675	0.17675
   296	-0.0562704	-0.17675	0.17675
   297	-0.0518413	-0.17675	0.17675
   298	-0.0587814	-0.17675	0.17675
   299	-0.0500289	-0.17675	0.17675
   300	-0.0574835	-0.17675	0.17675
   301	-0.0593341	-0.17675	0.17675
   302	-0.0544201	-0.17675	0.17675
   303	-0.0590793	-0.17675	0.17675
   304	-0.0595357	-0.17675	0.17675
   305	-0.0531152	-0.17675	0.17675
   306	-0.0592153	-0.17675	0.17675
   307	-0.0589821	-0.17675	0.17675
   308	-0.0594072	-0.17675	0.17675
   309	-0.0588059	-0.17675	0.17675
   310	-0.0593227	-0.17675	0.17675
   311	-0.0571449	-0.17675	0.17675
   312	-0.0582897	-0.17675	0.17675
   313	-0.0582818	-0.17675	0.17675
   314	-0.0531554	-0.17675	0.17675
   315	-0.0592665	-0.17675	0.17675
   316	-0.0593302	-0.17675	0.17675
   317	-0.0575734	-0.17675	0.17675
   318	-0.0590486	-0.17675	0.17675
   319	-0.0481336	-0.17675	0.17675
   320	-0.0584261	-0.17675	0.17675
   321	-0.0595573	-0.17675	0.17675
   322	-0.0578426	-0.17675	0.17675
   323	-0.0583873	-0.17675	0.17675
   324	-0.0594767	-0.17675	0.17675
   325	-0.0578997	-0.17675	0.17675
   326	-0.0592762	-0.17675	0.17675
   327	-0.0559789	-0.17675	0.17675
   328	-0.0529063	-0.17675	0.17675
   329	-0.0562746	-0.17675	0.17675
   330	-0.056697	-0.17675	0.17675
   331	-0.0588035	-0.17675	0.17675
   332	-0.0555906	-0.17675	0.17675
   333	-0.0577388	-0.17675	0.17675
   334	-0.0582919	-0.17675	0.17675
   335	-0.0574964	-0.17675	0.17675
   336	-0.0590783	-0.17675	0.17675
   337	-0.0576386	-0.17675	0.17675
   338	-0.0572958	-0.17675	0.17675
   339	-0.0542623	-0.17675	0.17675
   340	-0.0593906	-0.17675	0.17675
   341	-0.0564546	-0.17675	0.17675
   342	-0.0595606	-0.17675	0.17675
   343	-0.0593574	-0.17675	0.17675
   344	-0.0595274	-0.17675	0.17675
   345	-0.0581075	-0.17675	0.17675
   346	-0.057586	-0.17675	0.17675
   347	-0.0593189	-0.17675	0.17675
   348	-0.0496312	-0.17675	0.17675
   349	-0.058207	-0.17675	0.17675
   350	-0.0576951	-0.17675	0.17675
   351	-0.0586701	-0.17675	0.17675
   352	-0.0578723	-0.17675	0.17675
   353	-0.0590086	-0.17675	0.17675
   354	-0.059194	-0.17675	0.17675
   355	-0.057974	-0.17675	0.17675
   356	-0.0560362	-0.17675	0.17675
   357	-0.0575531	-0.17675	0.17675
   358	-0.0560041	-0.17675	0.17675
   359	-0.0585012	-0.17675	0.17675
   360	-0.0586294	-0.17675	0.17675
   361	-0.0458008	-0.17675	0.17675
   362	-0.0582484	-0.17675	0.17675
   363	-0.0595526	-0.17675	0.17675
   364	-0.0587496	-0.17675	0.17675
   365	-0.0584178	-0.17675	0.17675
   366	-0.0584931	-0.17675	0.17675
   367	-0.0589879	-0.17675	0.17675
   368	-0.0584674	-0.17675	0.17675
   369	-0.0578617	-0.17675	0.17675
   370	-0.0588226	-0.17675	0.17675
   371	-0.0563781	-0.17675	0.17675
   372	-0.0577624	-0.17675	0.17675
   373	-0.0551482	-0.17675	0.17675
   374	-0.0584078	-0.17675	0.17675
   375	-0.0561248	-0.17675	0.17675
   376	-0.058772	-0.17675	0.17675
   377	-0.0558845	-0.17675	0.17675
   378	-0.0591757	-0.17675	0.17675
   379	-0.0509654	-0.17675	0.17675
   380	-0.0589298	-0.17675	0.17675
   381	-0.0574716	-0.17675	0.17675
   382	-0.0550178	-0.17675	0.17675
   383	-0.0554978	-0.17675	0.17675
   384	-0.0570899	-0.17675	0.17675
   385	-0.0510231	-0.17675	0.17675
   386	-0.0589537	-0.17675	0.17675
   387	-0.0579115	-0.17675	0.17675
   388	-0.0561534	-0.17675	0.17675
   389	-0.0586432	-0.17675	0.17675
   390	-0.0586027	-0.17675	0.17675
   391	-0.0462711	-0.17675	0.17675
   392	-0.0561454	-0.17675	0.17675
   393	-0.0577681	-0.17675	0.17675
   394	-0.0577699	-0.17675	0.17675
   395	-0.0585722	-0.17675	0.17675
   396	-0.0556371	-0.17675	0.17675
   397	-0.0554763	-0.17675	0.17675
   398	-0.0588662	-0.17675	0.17675
   399	-0.0591225	-0.17675	0.17675
   400	-0.0575331	-0.17675	0.17675


Date: Sun Dec  3 18:16:34 2023
Total elapsed time: 13.517 seconds.

tnom = 27
temp = 27
method = trap
totiter = 82
traniter = 0
tranpoints = 0
accept = 0
rejected = 0
matrix size = 33
fillins = 28
solver = Normal
Avg thread counts: 8.0/0.0/8.0/8.0
Matrix Compiler1: off
Matrix Compiler2: 2.78 KB object code size
