Circuit: * D:\Disco D\universita\magistrale\progettazione-low-power\progetti\progetto-2\ltspice\models\gaussian-vth\read\gaussian_vth_read.asc

WARNING: Node NC_01 is floating.
WARNING: Node NC_02 is floating.
WARNING: Node NC_03 is floating.
WARNING: Node NC_04 is floating.
WARNING: Node NC_05 is floating.

WARNING: Less than two connections to node nc_01.  This node is used by vsweep.
WARNING: Less than two connections to node nc_02.  This node is used by e2.
WARNING: Less than two connections to node nc_03.  This node is used by e8.
WARNING: Less than two connections to node nc_04.  This node is used by m5.
WARNING: Less than two connections to node nc_05.  This node is used by m6.
Warning: Pd = 0 is less than W.
Warning: Ps = 0 is less than W.
Warning: Pd = 0 is less than W.
Warning: Ps = 0 is less than W.
Warning: Pd = 0 is less than W.
Warning: Ps = 0 is less than W.
.step run=1
.step run=2
.step run=3
.step run=4
.step run=5
.step run=6
.step run=7
.step run=8
.step run=9
.step run=10
.step run=11
.step run=12
.step run=13
.step run=14
.step run=15
.step run=16
.step run=17
.step run=18
.step run=19
.step run=20
.step run=21
.step run=22
.step run=23
.step run=24
.step run=25
.step run=26
.step run=27
.step run=28
.step run=29
.step run=30
.step run=31
.step run=32
.step run=33
.step run=34
.step run=35
.step run=36
.step run=37
.step run=38
.step run=39
.step run=40
.step run=41
.step run=42
.step run=43
.step run=44
.step run=45
.step run=46
.step run=47
.step run=48
.step run=49
.step run=50
.step run=51
.step run=52
.step run=53
.step run=54
.step run=55
.step run=56
.step run=57
.step run=58
.step run=59
.step run=60
.step run=61
.step run=62
.step run=63
.step run=64
.step run=65
.step run=66
.step run=67
.step run=68
.step run=69
.step run=70
.step run=71
.step run=72
.step run=73
.step run=74
.step run=75
.step run=76
.step run=77
.step run=78
.step run=79
.step run=80
.step run=81
.step run=82
.step run=83
.step run=84
.step run=85
.step run=86
.step run=87
.step run=88
.step run=89
.step run=90
.step run=91
.step run=92
.step run=93
.step run=94
.step run=95
.step run=96
.step run=97
.step run=98
.step run=99
.step run=100
.step run=101
.step run=102
.step run=103
.step run=104
.step run=105
.step run=106
.step run=107
.step run=108
.step run=109
.step run=110
.step run=111
.step run=112
.step run=113
.step run=114
.step run=115
.step run=116
.step run=117
.step run=118
.step run=119
.step run=120
.step run=121
.step run=122
.step run=123
.step run=124
.step run=125
.step run=126
.step run=127
.step run=128
.step run=129
.step run=130
.step run=131
.step run=132
.step run=133
.step run=134
.step run=135
.step run=136
.step run=137
.step run=138
.step run=139
.step run=140
.step run=141
.step run=142
.step run=143
.step run=144
.step run=145
.step run=146
.step run=147
.step run=148
.step run=149
.step run=150
.step run=151
.step run=152
.step run=153
.step run=154
.step run=155
.step run=156
.step run=157
.step run=158
.step run=159
.step run=160
.step run=161
.step run=162
.step run=163
.step run=164
.step run=165
.step run=166
.step run=167
.step run=168
.step run=169
.step run=170
.step run=171
.step run=172
.step run=173
.step run=174
.step run=175
.step run=176
.step run=177
.step run=178
.step run=179
.step run=180
.step run=181
.step run=182
.step run=183
.step run=184
.step run=185
.step run=186
.step run=187
.step run=188
.step run=189
.step run=190
.step run=191
.step run=192
.step run=193
.step run=194
.step run=195
.step run=196
.step run=197
.step run=198
.step run=199
.step run=200
.step run=201
.step run=202
.step run=203
.step run=204
.step run=205
.step run=206
.step run=207
.step run=208
.step run=209
.step run=210
.step run=211
.step run=212
.step run=213
.step run=214
.step run=215
.step run=216
.step run=217
.step run=218
.step run=219
.step run=220
.step run=221
.step run=222
.step run=223
.step run=224
.step run=225
.step run=226
.step run=227
.step run=228
.step run=229
.step run=230
.step run=231
.step run=232
.step run=233
.step run=234
.step run=235
.step run=236
.step run=237
.step run=238
.step run=239
.step run=240
.step run=241
.step run=242
.step run=243
.step run=244
.step run=245
.step run=246
.step run=247
.step run=248
.step run=249
.step run=250
.step run=251
.step run=252
.step run=253
.step run=254
.step run=255
.step run=256
.step run=257
.step run=258
.step run=259
.step run=260
.step run=261
.step run=262
.step run=263
.step run=264
.step run=265
.step run=266
.step run=267
.step run=268
.step run=269
.step run=270
.step run=271
.step run=272
.step run=273
.step run=274
.step run=275
.step run=276
.step run=277
.step run=278
.step run=279
.step run=280
.step run=281
.step run=282
.step run=283
.step run=284
.step run=285
.step run=286
.step run=287
.step run=288
.step run=289
.step run=290
.step run=291
.step run=292
.step run=293
.step run=294
.step run=295
.step run=296
.step run=297
.step run=298
.step run=299
.step run=300
.step run=301
.step run=302
.step run=303
.step run=304
.step run=305
.step run=306
.step run=307
.step run=308
.step run=309
.step run=310
.step run=311
.step run=312
.step run=313
.step run=314
.step run=315
.step run=316
.step run=317
.step run=318
.step run=319
.step run=320
.step run=321
.step run=322
.step run=323
.step run=324
.step run=325
.step run=326
.step run=327
.step run=328
.step run=329
.step run=330
.step run=331
.step run=332
.step run=333
.step run=334
.step run=335
.step run=336
.step run=337
.step run=338
.step run=339
.step run=340
.step run=341
.step run=342
.step run=343
.step run=344
.step run=345
.step run=346
.step run=347
.step run=348
.step run=349
.step run=350
.step run=351
.step run=352
.step run=353
.step run=354
.step run=355
.step run=356
.step run=357
.step run=358
.step run=359
.step run=360
.step run=361
.step run=362
.step run=363
.step run=364
.step run=365
.step run=366
.step run=367
.step run=368
.step run=369
.step run=370
.step run=371
.step run=372
.step run=373
.step run=374
.step run=375
.step run=376
.step run=377
.step run=378
.step run=379
.step run=380
.step run=381
.step run=382
.step run=383
.step run=384
.step run=385
.step run=386
.step run=387
.step run=388
.step run=389
.step run=390
.step run=391
.step run=392
.step run=393
.step run=394
.step run=395
.step run=396
.step run=397
.step run=398
.step run=399
.step run=400


Measurement: snm_max
  step	MAX(0.707*v(v1)-0.707*v(v2))	FROM	TO
     1	0.11931	-0.707	0.707
     2	0.15764	-0.707	0.707
     3	0.141936	-0.707	0.707
     4	0.140071	-0.707	0.707
     5	0.203557	-0.707	0.707
     6	0.160209	-0.707	0.707
     7	0.150782	-0.707	0.707
     8	0.097639	-0.707	0.707
     9	0.115229	-0.707	0.707
    10	0.135241	-0.707	0.707
    11	0.101702	-0.707	0.707
    12	0.125983	-0.707	0.707
    13	0.122906	-0.707	0.707
    14	0.156338	-0.707	0.707
    15	0.133846	-0.707	0.707
    16	0.131989	-0.707	0.707
    17	0.158217	-0.707	0.707
    18	0.135732	-0.707	0.707
    19	0.152772	-0.707	0.707
    20	0.160259	-0.707	0.707
    21	0.139739	-0.707	0.707
    22	0.126614	-0.707	0.707
    23	0.13396	-0.707	0.707
    24	0.148765	-0.707	0.707
    25	0.162522	-0.707	0.707
    26	0.133828	-0.707	0.707
    27	0.197169	-0.707	0.707
    28	0.0944272	-0.707	0.707
    29	0.130545	-0.707	0.707
    30	0.151715	-0.707	0.707
    31	0.132821	-0.707	0.707
    32	0.129295	-0.707	0.707
    33	0.152212	-0.707	0.707
    34	0.154766	-0.707	0.707
    35	0.123547	-0.707	0.707
    36	0.156306	-0.707	0.707
    37	0.130313	-0.707	0.707
    38	0.137946	-0.707	0.707
    39	0.14491	-0.707	0.707
    40	0.124647	-0.707	0.707
    41	0.113564	-0.707	0.707
    42	0.162795	-0.707	0.707
    43	0.159846	-0.707	0.707
    44	0.133534	-0.707	0.707
    45	0.153856	-0.707	0.707
    46	0.135381	-0.707	0.707
    47	0.112199	-0.707	0.707
    48	0.107886	-0.707	0.707
    49	0.151179	-0.707	0.707
    50	0.0939613	-0.707	0.707
    51	0.168043	-0.707	0.707
    52	0.183105	-0.707	0.707
    53	0.123499	-0.707	0.707
    54	0.180907	-0.707	0.707
    55	0.171764	-0.707	0.707
    56	0.166491	-0.707	0.707
    57	0.155252	-0.707	0.707
    58	0.172156	-0.707	0.707
    59	0.105272	-0.707	0.707
    60	0.135898	-0.707	0.707
    61	0.153522	-0.707	0.707
    62	0.143722	-0.707	0.707
    63	0.107524	-0.707	0.707
    64	0.128413	-0.707	0.707
    65	0.124005	-0.707	0.707
    66	0.182534	-0.707	0.707
    67	0.147134	-0.707	0.707
    68	0.154002	-0.707	0.707
    69	0.138994	-0.707	0.707
    70	0.0937551	-0.707	0.707
    71	0.13681	-0.707	0.707
    72	0.147295	-0.707	0.707
    73	0.149308	-0.707	0.707
    74	0.162266	-0.707	0.707
    75	0.114867	-0.707	0.707
    76	0.158147	-0.707	0.707
    77	0.146853	-0.707	0.707
    78	0.108726	-0.707	0.707
    79	0.0997164	-0.707	0.707
    80	0.128402	-0.707	0.707
    81	0.170682	-0.707	0.707
    82	0.158142	-0.707	0.707
    83	0.159411	-0.707	0.707
    84	0.153947	-0.707	0.707
    85	0.140158	-0.707	0.707
    86	0.162449	-0.707	0.707
    87	0.176245	-0.707	0.707
    88	0.161184	-0.707	0.707
    89	0.10454	-0.707	0.707
    90	0.17043	-0.707	0.707
    91	0.11609	-0.707	0.707
    92	0.153311	-0.707	0.707
    93	0.168769	-0.707	0.707
    94	0.158684	-0.707	0.707
    95	0.177163	-0.707	0.707
    96	0.128185	-0.707	0.707
    97	0.157514	-0.707	0.707
    98	0.132726	-0.707	0.707
    99	0.139178	-0.707	0.707
   100	0.143209	-0.707	0.707
   101	0.131803	-0.707	0.707
   102	0.162356	-0.707	0.707
   103	0.140169	-0.707	0.707
   104	0.158001	-0.707	0.707
   105	0.145014	-0.707	0.707
   106	0.132797	-0.707	0.707
   107	0.128297	-0.707	0.707
   108	0.126373	-0.707	0.707
   109	0.120251	-0.707	0.707
   110	0.193201	-0.707	0.707
   111	0.110307	-0.707	0.707
   112	0.0982365	-0.707	0.707
   113	0.144663	-0.707	0.707
   114	0.151852	-0.707	0.707
   115	0.109709	-0.707	0.707
   116	0.18021	-0.707	0.707
   117	0.164907	-0.707	0.707
   118	0.130775	-0.707	0.707
   119	0.157792	-0.707	0.707
   120	0.11786	-0.707	0.707
   121	0.144398	-0.707	0.707
   122	0.140075	-0.707	0.707
   123	0.12093	-0.707	0.707
   124	0.153173	-0.707	0.707
   125	0.158176	-0.707	0.707
   126	0.172029	-0.707	0.707
   127	0.173381	-0.707	0.707
   128	0.13849	-0.707	0.707
   129	0.179723	-0.707	0.707
   130	0.149488	-0.707	0.707
   131	0.119262	-0.707	0.707
   132	0.139808	-0.707	0.707
   133	0.185836	-0.707	0.707
   134	0.148021	-0.707	0.707
   135	0.135638	-0.707	0.707
   136	0.177563	-0.707	0.707
   137	0.116362	-0.707	0.707
   138	0.161577	-0.707	0.707
   139	0.113878	-0.707	0.707
   140	0.169274	-0.707	0.707
   141	0.134566	-0.707	0.707
   142	0.186079	-0.707	0.707
   143	0.1767	-0.707	0.707
   144	0.146765	-0.707	0.707
   145	0.165155	-0.707	0.707
   146	0.105984	-0.707	0.707
   147	0.150204	-0.707	0.707
   148	0.165961	-0.707	0.707
   149	0.145899	-0.707	0.707
   150	0.140662	-0.707	0.707
   151	0.168041	-0.707	0.707
   152	0.176119	-0.707	0.707
   153	0.143926	-0.707	0.707
   154	0.174005	-0.707	0.707
   155	0.141862	-0.707	0.707
   156	0.142982	-0.707	0.707
   157	0.132634	-0.707	0.707
   158	0.136204	-0.707	0.707
   159	0.1735	-0.707	0.707
   160	0.154099	-0.707	0.707
   161	0.17259	-0.707	0.707
   162	0.122431	-0.707	0.707
   163	0.157879	-0.707	0.707
   164	0.112581	-0.707	0.707
   165	0.189092	-0.707	0.707
   166	0.161943	-0.707	0.707
   167	0.113361	-0.707	0.707
   168	0.163996	-0.707	0.707
   169	0.0849728	-0.707	0.707
   170	0.126801	-0.707	0.707
   171	0.13375	-0.707	0.707
   172	0.181377	-0.707	0.707
   173	0.130448	-0.707	0.707
   174	0.116084	-0.707	0.707
   175	0.109213	-0.707	0.707
   176	0.235863	-0.707	0.707
   177	0.121741	-0.707	0.707
   178	0.150655	-0.707	0.707
   179	0.166109	-0.707	0.707
   180	0.124387	-0.707	0.707
   181	0.153453	-0.707	0.707
   182	0.134932	-0.707	0.707
   183	0.154998	-0.707	0.707
   184	0.155005	-0.707	0.707
   185	0.12908	-0.707	0.707
   186	0.115706	-0.707	0.707
   187	0.108746	-0.707	0.707
   188	0.15665	-0.707	0.707
   189	0.140294	-0.707	0.707
   190	0.122141	-0.707	0.707
   191	0.164663	-0.707	0.707
   192	0.127738	-0.707	0.707
   193	0.182357	-0.707	0.707
   194	0.125318	-0.707	0.707
   195	0.150686	-0.707	0.707
   196	0.14187	-0.707	0.707
   197	0.133008	-0.707	0.707
   198	0.123577	-0.707	0.707
   199	0.136896	-0.707	0.707
   200	0.161295	-0.707	0.707
   201	0.135121	-0.707	0.707
   202	0.14966	-0.707	0.707
   203	0.188931	-0.707	0.707
   204	0.125421	-0.707	0.707
   205	0.163818	-0.707	0.707
   206	0.185588	-0.707	0.707
   207	0.137561	-0.707	0.707
   208	0.153888	-0.707	0.707
   209	0.179217	-0.707	0.707
   210	0.151481	-0.707	0.707
   211	0.163764	-0.707	0.707
   212	0.148556	-0.707	0.707
   213	0.163819	-0.707	0.707
   214	0.163916	-0.707	0.707
   215	0.138082	-0.707	0.707
   216	0.155207	-0.707	0.707
   217	0.130885	-0.707	0.707
   218	0.149532	-0.707	0.707
   219	0.140256	-0.707	0.707
   220	0.192558	-0.707	0.707
   221	0.168669	-0.707	0.707
   222	0.187377	-0.707	0.707
   223	0.105718	-0.707	0.707
   224	0.164543	-0.707	0.707
   225	0.13706	-0.707	0.707
   226	0.134772	-0.707	0.707
   227	0.112524	-0.707	0.707
   228	0.125255	-0.707	0.707
   229	0.123518	-0.707	0.707
   230	0.108401	-0.707	0.707
   231	0.134356	-0.707	0.707
   232	0.134365	-0.707	0.707
   233	0.147165	-0.707	0.707
   234	0.128052	-0.707	0.707
   235	0.160508	-0.707	0.707
   236	0.0889634	-0.707	0.707
   237	0.102722	-0.707	0.707
   238	0.145327	-0.707	0.707
   239	0.151573	-0.707	0.707
   240	0.143106	-0.707	0.707
   241	0.155254	-0.707	0.707
   242	0.174306	-0.707	0.707
   243	0.159523	-0.707	0.707
   244	0.13103	-0.707	0.707
   245	0.181677	-0.707	0.707
   246	0.123451	-0.707	0.707
   247	0.148355	-0.707	0.707
   248	0.15856	-0.707	0.707
   249	0.163493	-0.707	0.707
   250	0.179771	-0.707	0.707
   251	0.173685	-0.707	0.707
   252	0.146475	-0.707	0.707
   253	0.139083	-0.707	0.707
   254	0.115018	-0.707	0.707
   255	0.148168	-0.707	0.707
   256	0.141427	-0.707	0.707
   257	0.0969073	-0.707	0.707
   258	0.122339	-0.707	0.707
   259	0.156015	-0.707	0.707
   260	0.162357	-0.707	0.707
   261	0.13478	-0.707	0.707
   262	0.199461	-0.707	0.707
   263	0.177863	-0.707	0.707
   264	0.141534	-0.707	0.707
   265	0.101004	-0.707	0.707
   266	0.127462	-0.707	0.707
   267	0.132096	-0.707	0.707
   268	0.129377	-0.707	0.707
   269	0.141133	-0.707	0.707
   270	0.111451	-0.707	0.707
   271	0.185998	-0.707	0.707
   272	0.172942	-0.707	0.707
   273	0.17459	-0.707	0.707
   274	0.126901	-0.707	0.707
   275	0.15923	-0.707	0.707
   276	0.100068	-0.707	0.707
   277	0.135401	-0.707	0.707
   278	0.130747	-0.707	0.707
   279	0.122227	-0.707	0.707
   280	0.169584	-0.707	0.707
   281	0.161784	-0.707	0.707
   282	0.158781	-0.707	0.707
   283	0.131089	-0.707	0.707
   284	0.142617	-0.707	0.707
   285	0.129693	-0.707	0.707
   286	0.146538	-0.707	0.707
   287	0.14608	-0.707	0.707
   288	0.109627	-0.707	0.707
   289	0.142738	-0.707	0.707
   290	0.160285	-0.707	0.707
   291	0.102896	-0.707	0.707
   292	0.108175	-0.707	0.707
   293	0.131135	-0.707	0.707
   294	0.15016	-0.707	0.707
   295	0.102242	-0.707	0.707
   296	0.121473	-0.707	0.707
   297	0.193654	-0.707	0.707
   298	0.136423	-0.707	0.707
   299	0.202166	-0.707	0.707
   300	0.11767	-0.707	0.707
   301	0.148703	-0.707	0.707
   302	0.101413	-0.707	0.707
   303	0.135301	-0.707	0.707
   304	0.143836	-0.707	0.707
   305	0.0977981	-0.707	0.707
   306	0.132488	-0.707	0.707
   307	0.133685	-0.707	0.707
   308	0.152669	-0.707	0.707
   309	0.143028	-0.707	0.707
   310	0.14185	-0.707	0.707
   311	0.119461	-0.707	0.707
   312	0.134887	-0.707	0.707
   313	0.167617	-0.707	0.707
   314	0.193351	-0.707	0.707
   315	0.155567	-0.707	0.707
   316	0.147115	-0.707	0.707
   317	0.115942	-0.707	0.707
   318	0.141257	-0.707	0.707
   319	0.0825358	-0.707	0.707
   320	0.124724	-0.707	0.707
   321	0.146259	-0.707	0.707
   322	0.149262	-0.707	0.707
   323	0.131624	-0.707	0.707
   324	0.146702	-0.707	0.707
   325	0.170717	-0.707	0.707
   326	0.13538	-0.707	0.707
   327	0.179147	-0.707	0.707
   328	0.193323	-0.707	0.707
   329	0.180891	-0.707	0.707
   330	0.178646	-0.707	0.707
   331	0.133858	-0.707	0.707
   332	0.111168	-0.707	0.707
   333	0.134228	-0.707	0.707
   334	0.143011	-0.707	0.707
   335	0.173688	-0.707	0.707
   336	0.155833	-0.707	0.707
   337	0.166638	-0.707	0.707
   338	0.119084	-0.707	0.707
   339	0.101034	-0.707	0.707
   340	0.131921	-0.707	0.707
   341	0.179976	-0.707	0.707
   342	0.146726	-0.707	0.707
   343	0.146191	-0.707	0.707
   344	0.145405	-0.707	0.707
   345	0.122803	-0.707	0.707
   346	0.158731	-0.707	0.707
   347	0.15468	-0.707	0.707
   348	0.199491	-0.707	0.707
   349	0.112114	-0.707	0.707
   350	0.134452	-0.707	0.707
   351	0.151537	-0.707	0.707
   352	0.125001	-0.707	0.707
   353	0.157531	-0.707	0.707
   354	0.147127	-0.707	0.707
   355	0.136334	-0.707	0.707
   356	0.116017	-0.707	0.707
   357	0.156881	-0.707	0.707
   358	0.178617	-0.707	0.707
   359	0.165345	-0.707	0.707
   360	0.135491	-0.707	0.707
   361	0.0819192	-0.707	0.707
   362	0.124557	-0.707	0.707
   363	0.143511	-0.707	0.707
   364	0.161744	-0.707	0.707
   365	0.121128	-0.707	0.707
   366	0.123961	-0.707	0.707
   367	0.155792	-0.707	0.707
   368	0.152886	-0.707	0.707
   369	0.16546	-0.707	0.707
   370	0.131829	-0.707	0.707
   371	0.117613	-0.707	0.707
   372	0.127177	-0.707	0.707
   373	0.102975	-0.707	0.707
   374	0.164869	-0.707	0.707
   375	0.161967	-0.707	0.707
   376	0.132251	-0.707	0.707
   377	0.172388	-0.707	0.707
   378	0.157395	-0.707	0.707
   379	0.0883251	-0.707	0.707
   380	0.154568	-0.707	0.707
   381	0.173311	-0.707	0.707
   382	0.102744	-0.707	0.707
   383	0.107033	-0.707	0.707
   384	0.143558	-0.707	0.707
   385	0.199208	-0.707	0.707
   386	0.133066	-0.707	0.707
   387	0.167569	-0.707	0.707
   388	0.180739	-0.707	0.707
   389	0.127799	-0.707	0.707
   390	0.164888	-0.707	0.707
   391	0.0815806	-0.707	0.707
   392	0.172067	-0.707	0.707
   393	0.122847	-0.707	0.707
   394	0.140276	-0.707	0.707
   395	0.165242	-0.707	0.707
   396	0.109521	-0.707	0.707
   397	0.182272	-0.707	0.707
   398	0.13583	-0.707	0.707
   399	0.137858	-0.707	0.707
   400	0.115844	-0.707	0.707

Measurement: snm_min
  step	MIN(0.707*v(v1)-0.707*v(v2))	FROM	TO
     1	-0.119306	-0.707	0.707
     2	-0.157598	-0.707	0.707
     3	-0.141913	-0.707	0.707
     4	-0.140065	-0.707	0.707
     5	-0.2035	-0.707	0.707
     6	-0.160181	-0.707	0.707
     7	-0.15076	-0.707	0.707
     8	-0.0976304	-0.707	0.707
     9	-0.11524	-0.707	0.707
    10	-0.135241	-0.707	0.707
    11	-0.101709	-0.707	0.707
    12	-0.126005	-0.707	0.707
    13	-0.122894	-0.707	0.707
    14	-0.156297	-0.707	0.707
    15	-0.133826	-0.707	0.707
    16	-0.131999	-0.707	0.707
    17	-0.158198	-0.707	0.707
    18	-0.135738	-0.707	0.707
    19	-0.152744	-0.707	0.707
    20	-0.160231	-0.707	0.707
    21	-0.139714	-0.707	0.707
    22	-0.126642	-0.707	0.707
    23	-0.133971	-0.707	0.707
    24	-0.148752	-0.707	0.707
    25	-0.1625	-0.707	0.707
    26	-0.133803	-0.707	0.707
    27	-0.197126	-0.707	0.707
    28	-0.0944123	-0.707	0.707
    29	-0.130554	-0.707	0.707
    30	-0.151696	-0.707	0.707
    31	-0.132818	-0.707	0.707
    32	-0.129316	-0.707	0.707
    33	-0.152171	-0.707	0.707
    34	-0.154739	-0.707	0.707
    35	-0.123536	-0.707	0.707
    36	-0.156265	-0.707	0.707
    37	-0.130335	-0.707	0.707
    38	-0.137945	-0.707	0.707
    39	-0.144901	-0.707	0.707
    40	-0.124662	-0.707	0.707
    41	-0.113579	-0.707	0.707
    42	-0.16283	-0.707	0.707
    43	-0.159811	-0.707	0.707
    44	-0.13355	-0.707	0.707
    45	-0.153833	-0.707	0.707
    46	-0.135379	-0.707	0.707
    47	-0.112184	-0.707	0.707
    48	-0.107879	-0.707	0.707
    49	-0.151151	-0.707	0.707
    50	-0.0939543	-0.707	0.707
    51	-0.168	-0.707	0.707
    52	-0.183063	-0.707	0.707
    53	-0.123504	-0.707	0.707
    54	-0.180869	-0.707	0.707
    55	-0.171718	-0.707	0.707
    56	-0.166469	-0.707	0.707
    57	-0.155214	-0.707	0.707
    58	-0.172111	-0.707	0.707
    59	-0.105281	-0.707	0.707
    60	-0.135907	-0.707	0.707
    61	-0.153487	-0.707	0.707
    62	-0.143684	-0.707	0.707
    63	-0.107539	-0.707	0.707
    64	-0.128441	-0.707	0.707
    65	-0.124019	-0.707	0.707
    66	-0.182488	-0.707	0.707
    67	-0.147127	-0.707	0.707
    68	-0.153979	-0.707	0.707
    69	-0.13896	-0.707	0.707
    70	-0.0937515	-0.707	0.707
    71	-0.136819	-0.707	0.707
    72	-0.147269	-0.707	0.707
    73	-0.149271	-0.707	0.707
    74	-0.162251	-0.707	0.707
    75	-0.114884	-0.707	0.707
    76	-0.158108	-0.707	0.707
    77	-0.146832	-0.707	0.707
    78	-0.108737	-0.707	0.707
    79	-0.0997226	-0.707	0.707
    80	-0.12843	-0.707	0.707
    81	-0.170645	-0.707	0.707
    82	-0.15812	-0.707	0.707
    83	-0.159379	-0.707	0.707
    84	-0.153917	-0.707	0.707
    85	-0.140153	-0.707	0.707
    86	-0.162413	-0.707	0.707
    87	-0.176198	-0.707	0.707
    88	-0.161147	-0.707	0.707
    89	-0.104548	-0.707	0.707
    90	-0.170388	-0.707	0.707
    91	-0.116092	-0.707	0.707
    92	-0.153287	-0.707	0.707
    93	-0.168727	-0.707	0.707
    94	-0.158656	-0.707	0.707
    95	-0.177128	-0.707	0.707
    96	-0.128214	-0.707	0.707
    97	-0.157482	-0.707	0.707
    98	-0.13274	-0.707	0.707
    99	-0.139163	-0.707	0.707
   100	-0.143207	-0.707	0.707
   101	-0.131822	-0.707	0.707
   102	-0.162324	-0.707	0.707
   103	-0.140152	-0.707	0.707
   104	-0.157975	-0.707	0.707
   105	-0.14499	-0.707	0.707
   106	-0.13282	-0.707	0.707
   107	-0.128317	-0.707	0.707
   108	-0.126403	-0.707	0.707
   109	-0.120268	-0.707	0.707
   110	-0.193164	-0.707	0.707
   111	-0.110298	-0.707	0.707
   112	-0.0982459	-0.707	0.707
   113	-0.144647	-0.707	0.707
   114	-0.151819	-0.707	0.707
   115	-0.109725	-0.707	0.707
   116	-0.180186	-0.707	0.707
   117	-0.16487	-0.707	0.707
   118	-0.130798	-0.707	0.707
   119	-0.157782	-0.707	0.707
   120	-0.11787	-0.707	0.707
   121	-0.144383	-0.707	0.707
   122	-0.140075	-0.707	0.707
   123	-0.120922	-0.707	0.707
   124	-0.153184	-0.707	0.707
   125	-0.158143	-0.707	0.707
   126	-0.171999	-0.707	0.707
   127	-0.173343	-0.707	0.707
   128	-0.138485	-0.707	0.707
   129	-0.179677	-0.707	0.707
   130	-0.149469	-0.707	0.707
   131	-0.11925	-0.707	0.707
   132	-0.139802	-0.707	0.707
   133	-0.185797	-0.707	0.707
   134	-0.147988	-0.707	0.707
   135	-0.13562	-0.707	0.707
   136	-0.177514	-0.707	0.707
   137	-0.116371	-0.707	0.707
   138	-0.161558	-0.707	0.707
   139	-0.113898	-0.707	0.707
   140	-0.16924	-0.707	0.707
   141	-0.134538	-0.707	0.707
   142	-0.186034	-0.707	0.707
   143	-0.176668	-0.707	0.707
   144	-0.146729	-0.707	0.707
   145	-0.165127	-0.707	0.707
   146	-0.105969	-0.707	0.707
   147	-0.150186	-0.707	0.707
   148	-0.165918	-0.707	0.707
   149	-0.145886	-0.707	0.707
   150	-0.140639	-0.707	0.707
   151	-0.168001	-0.707	0.707
   152	-0.176079	-0.707	0.707
   153	-0.143901	-0.707	0.707
   154	-0.173965	-0.707	0.707
   155	-0.141856	-0.707	0.707
   156	-0.142969	-0.707	0.707
   157	-0.132644	-0.707	0.707
   158	-0.136206	-0.707	0.707
   159	-0.173458	-0.707	0.707
   160	-0.154069	-0.707	0.707
   161	-0.172552	-0.707	0.707
   162	-0.12243	-0.707	0.707
   163	-0.157849	-0.707	0.707
   164	-0.112599	-0.707	0.707
   165	-0.189042	-0.707	0.707
   166	-0.161905	-0.707	0.707
   167	-0.113345	-0.707	0.707
   168	-0.163955	-0.707	0.707
   169	-0.0849728	-0.707	0.707
   170	-0.126823	-0.707	0.707
   171	-0.133757	-0.707	0.707
   172	-0.181415	-0.707	0.707
   173	-0.130465	-0.707	0.707
   174	-0.116099	-0.707	0.707
   175	-0.109227	-0.707	0.707
   176	-0.235904	-0.707	0.707
   177	-0.121727	-0.707	0.707
   178	-0.150621	-0.707	0.707
   179	-0.166073	-0.707	0.707
   180	-0.124396	-0.707	0.707
   181	-0.153419	-0.707	0.707
   182	-0.134941	-0.707	0.707
   183	-0.154974	-0.707	0.707
   184	-0.154972	-0.707	0.707
   185	-0.129088	-0.707	0.707
   186	-0.115717	-0.707	0.707
   187	-0.108752	-0.707	0.707
   188	-0.156615	-0.707	0.707
   189	-0.140321	-0.707	0.707
   190	-0.122136	-0.707	0.707
   191	-0.164625	-0.707	0.707
   192	-0.127761	-0.707	0.707
   193	-0.18231	-0.707	0.707
   194	-0.125345	-0.707	0.707
   195	-0.150664	-0.707	0.707
   196	-0.141859	-0.707	0.707
   197	-0.132999	-0.707	0.707
   198	-0.123562	-0.707	0.707
   199	-0.136892	-0.707	0.707
   200	-0.161261	-0.707	0.707
   201	-0.135133	-0.707	0.707
   202	-0.149626	-0.707	0.707
   203	-0.188884	-0.707	0.707
   204	-0.125435	-0.707	0.707
   205	-0.163774	-0.707	0.707
   206	-0.185555	-0.707	0.707
   207	-0.13757	-0.707	0.707
   208	-0.153857	-0.707	0.707
   209	-0.179168	-0.707	0.707
   210	-0.151454	-0.707	0.707
   211	-0.16373	-0.707	0.707
   212	-0.148537	-0.707	0.707
   213	-0.163782	-0.707	0.707
   214	-0.163889	-0.707	0.707
   215	-0.138079	-0.707	0.707
   216	-0.155207	-0.707	0.707
   217	-0.130882	-0.707	0.707
   218	-0.149517	-0.707	0.707
   219	-0.140238	-0.707	0.707
   220	-0.192514	-0.707	0.707
   221	-0.168668	-0.707	0.707
   222	-0.187334	-0.707	0.707
   223	-0.105731	-0.707	0.707
   224	-0.164504	-0.707	0.707
   225	-0.137046	-0.707	0.707
   226	-0.13478	-0.707	0.707
   227	-0.112512	-0.707	0.707
   228	-0.125277	-0.707	0.707
   229	-0.123523	-0.707	0.707
   230	-0.108418	-0.707	0.707
   231	-0.134358	-0.707	0.707
   232	-0.134366	-0.707	0.707
   233	-0.147133	-0.707	0.707
   234	-0.128082	-0.707	0.707
   235	-0.160472	-0.707	0.707
   236	-0.0889769	-0.707	0.707
   237	-0.102722	-0.707	0.707
   238	-0.145304	-0.707	0.707
   239	-0.151539	-0.707	0.707
   240	-0.143091	-0.707	0.707
   241	-0.155226	-0.707	0.707
   242	-0.174263	-0.707	0.707
   243	-0.159481	-0.707	0.707
   244	-0.13104	-0.707	0.707
   245	-0.18164	-0.707	0.707
   246	-0.123449	-0.707	0.707
   247	-0.148338	-0.707	0.707
   248	-0.158529	-0.707	0.707
   249	-0.163476	-0.707	0.707
   250	-0.179722	-0.707	0.707
   251	-0.173665	-0.707	0.707
   252	-0.146456	-0.707	0.707
   253	-0.13908	-0.707	0.707
   254	-0.115038	-0.707	0.707
   255	-0.148143	-0.707	0.707
   256	-0.141406	-0.707	0.707
   257	-0.0969098	-0.707	0.707
   258	-0.122325	-0.707	0.707
   259	-0.155979	-0.707	0.707
   260	-0.162315	-0.707	0.707
   261	-0.134785	-0.707	0.707
   262	-0.199407	-0.707	0.707
   263	-0.177829	-0.707	0.707
   264	-0.141533	-0.707	0.707
   265	-0.100991	-0.707	0.707
   266	-0.127489	-0.707	0.707
   267	-0.132099	-0.707	0.707
   268	-0.129406	-0.707	0.707
   269	-0.141126	-0.707	0.707
   270	-0.111433	-0.707	0.707
   271	-0.185955	-0.707	0.707
   272	-0.172908	-0.707	0.707
   273	-0.17458	-0.707	0.707
   274	-0.126921	-0.707	0.707
   275	-0.159197	-0.707	0.707
   276	-0.100063	-0.707	0.707
   277	-0.135397	-0.707	0.707
   278	-0.130771	-0.707	0.707
   279	-0.122212	-0.707	0.707
   280	-0.169541	-0.707	0.707
   281	-0.161745	-0.707	0.707
   282	-0.158743	-0.707	0.707
   283	-0.131102	-0.707	0.707
   284	-0.142611	-0.707	0.707
   285	-0.129718	-0.707	0.707
   286	-0.146523	-0.707	0.707
   287	-0.146057	-0.707	0.707
   288	-0.10964	-0.707	0.707
   289	-0.142723	-0.707	0.707
   290	-0.160249	-0.707	0.707
   291	-0.102906	-0.707	0.707
   292	-0.108171	-0.707	0.707
   293	-0.131142	-0.707	0.707
   294	-0.150135	-0.707	0.707
   295	-0.102245	-0.707	0.707
   296	-0.121452	-0.707	0.707
   297	-0.193626	-0.707	0.707
   298	-0.136427	-0.707	0.707
   299	-0.202136	-0.707	0.707
   300	-0.117657	-0.707	0.707
   301	-0.14868	-0.707	0.707
   302	-0.101406	-0.707	0.707
   303	-0.135303	-0.707	0.707
   304	-0.143811	-0.707	0.707
   305	-0.0977879	-0.707	0.707
   306	-0.132487	-0.707	0.707
   307	-0.133691	-0.707	0.707
   308	-0.152628	-0.707	0.707
   309	-0.143021	-0.707	0.707
   310	-0.141837	-0.707	0.707
   311	-0.119443	-0.707	0.707
   312	-0.1349	-0.707	0.707
   313	-0.167577	-0.707	0.707
   314	-0.19331	-0.707	0.707
   315	-0.155532	-0.707	0.707
   316	-0.147095	-0.707	0.707
   317	-0.115937	-0.707	0.707
   318	-0.14125	-0.707	0.707
   319	-0.0825559	-0.707	0.707
   320	-0.124747	-0.707	0.707
   321	-0.146255	-0.707	0.707
   322	-0.149254	-0.707	0.707
   323	-0.131642	-0.707	0.707
   324	-0.146677	-0.707	0.707
   325	-0.170676	-0.707	0.707
   326	-0.135375	-0.707	0.707
   327	-0.179112	-0.707	0.707
   328	-0.193287	-0.707	0.707
   329	-0.180844	-0.707	0.707
   330	-0.1786	-0.707	0.707
   331	-0.133867	-0.707	0.707
   332	-0.111161	-0.707	0.707
   333	-0.134246	-0.707	0.707
   334	-0.143009	-0.707	0.707
   335	-0.173644	-0.707	0.707
   336	-0.155803	-0.707	0.707
   337	-0.166672	-0.707	0.707
   338	-0.119067	-0.707	0.707
   339	-0.10102	-0.707	0.707
   340	-0.131899	-0.707	0.707
   341	-0.179929	-0.707	0.707
   342	-0.146689	-0.707	0.707
   343	-0.146171	-0.707	0.707
   344	-0.145378	-0.707	0.707
   345	-0.122807	-0.707	0.707
   346	-0.158713	-0.707	0.707
   347	-0.154644	-0.707	0.707
   348	-0.199469	-0.707	0.707
   349	-0.112124	-0.707	0.707
   350	-0.13447	-0.707	0.707
   351	-0.151519	-0.707	0.707
   352	-0.125013	-0.707	0.707
   353	-0.1575	-0.707	0.707
   354	-0.147109	-0.707	0.707
   355	-0.136347	-0.707	0.707
   356	-0.116033	-0.707	0.707
   357	-0.156865	-0.707	0.707
   358	-0.178583	-0.707	0.707
   359	-0.165306	-0.707	0.707
   360	-0.135499	-0.707	0.707
   361	-0.0819192	-0.707	0.707
   362	-0.124574	-0.707	0.707
   363	-0.143485	-0.707	0.707
   364	-0.161724	-0.707	0.707
   365	-0.12114	-0.707	0.707
   366	-0.123986	-0.707	0.707
   367	-0.155764	-0.707	0.707
   368	-0.152868	-0.707	0.707
   369	-0.16543	-0.707	0.707
   370	-0.131842	-0.707	0.707
   371	-0.117615	-0.707	0.707
   372	-0.127199	-0.707	0.707
   373	-0.102972	-0.707	0.707
   374	-0.164853	-0.707	0.707
   375	-0.161955	-0.707	0.707
   376	-0.132264	-0.707	0.707
   377	-0.172364	-0.707	0.707
   378	-0.157357	-0.707	0.707
   379	-0.0883396	-0.707	0.707
   380	-0.154543	-0.707	0.707
   381	-0.173274	-0.707	0.707
   382	-0.102747	-0.707	0.707
   383	-0.107019	-0.707	0.707
   384	-0.143565	-0.707	0.707
   385	-0.199176	-0.707	0.707
   386	-0.133074	-0.707	0.707
   387	-0.167535	-0.707	0.707
   388	-0.180697	-0.707	0.707
   389	-0.127822	-0.707	0.707
   390	-0.164843	-0.707	0.707
   391	-0.0815806	-0.707	0.707
   392	-0.172042	-0.707	0.707
   393	-0.122844	-0.707	0.707
   394	-0.140283	-0.707	0.707
   395	-0.165199	-0.707	0.707
   396	-0.109531	-0.707	0.707
   397	-0.182252	-0.707	0.707
   398	-0.135834	-0.707	0.707
   399	-0.137855	-0.707	0.707
   400	-0.115841	-0.707	0.707


Date: Fri Dec  1 12:02:59 2023
Total elapsed time: 26.366 seconds.

tnom = 27
temp = 27
method = trap
totiter = 298
traniter = 0
tranpoints = 0
accept = 0
rejected = 0
matrix size = 33
fillins = 28
solver = Normal
Avg thread counts: 6.9/0.0/8.0/6.9
Matrix Compiler1: 2.14 KB object code size  0.6/0.4/[0.4]
Matrix Compiler2: 2.78 KB object code size  0.3/0.5/[0.2]

