Circuit: * D:\Disco D\universita\magistrale\progettazione-low-power\progetti\progetto-2\ltspice\models\gaussian-vth\hold\gaussian_vth_hold.asc

WARNING: Node NC_01 is floating.
WARNING: Node NC_02 is floating.
WARNING: Node NC_03 is floating.
WARNING: Node NC_04 is floating.
WARNING: Node NC_05 is floating.

WARNING: Less than two connections to node nc_01.  This node is used by vsweep.
WARNING: Less than two connections to node nc_02.  This node is used by e2.
WARNING: Less than two connections to node nc_03.  This node is used by e8.
WARNING: Less than two connections to node nc_04.  This node is used by m5.
WARNING: Less than two connections to node nc_05.  This node is used by m6.
Warning: Pd = 0 is less than W.
Warning: Ps = 0 is less than W.
Warning: Pd = 0 is less than W.
Warning: Ps = 0 is less than W.
Warning: Pd = 0 is less than W.
Warning: Ps = 0 is less than W.
.step run=1
.step run=2
.step run=3
.step run=4
.step run=5
.step run=6
.step run=7
.step run=8
.step run=9
.step run=10
.step run=11
.step run=12
.step run=13
.step run=14
.step run=15
.step run=16
.step run=17
.step run=18
.step run=19
.step run=20
.step run=21
.step run=22
.step run=23
.step run=24
.step run=25
.step run=26
.step run=27
.step run=28
.step run=29
.step run=30
.step run=31
.step run=32
.step run=33
.step run=34
.step run=35
.step run=36
.step run=37
.step run=38
.step run=39
.step run=40
.step run=41
.step run=42
.step run=43
.step run=44
.step run=45
.step run=46
.step run=47
.step run=48
.step run=49
.step run=50
.step run=51
.step run=52
.step run=53
.step run=54
.step run=55
.step run=56
.step run=57
.step run=58
.step run=59
.step run=60
.step run=61
.step run=62
.step run=63
.step run=64
.step run=65
.step run=66
.step run=67
.step run=68
.step run=69
.step run=70
.step run=71
.step run=72
.step run=73
.step run=74
.step run=75
.step run=76
.step run=77
.step run=78
.step run=79
.step run=80
.step run=81
.step run=82
.step run=83
.step run=84
.step run=85
.step run=86
.step run=87
.step run=88
.step run=89
.step run=90
.step run=91
.step run=92
.step run=93
.step run=94
.step run=95
.step run=96
.step run=97
.step run=98
.step run=99
.step run=100
.step run=101
.step run=102
.step run=103
.step run=104
.step run=105
.step run=106
.step run=107
.step run=108
.step run=109
.step run=110
.step run=111
.step run=112
.step run=113
.step run=114
.step run=115
.step run=116
.step run=117
.step run=118
.step run=119
.step run=120
.step run=121
.step run=122
.step run=123
.step run=124
.step run=125
.step run=126
.step run=127
.step run=128
.step run=129
.step run=130
.step run=131
.step run=132
.step run=133
.step run=134
.step run=135
.step run=136
.step run=137
.step run=138
.step run=139
.step run=140
.step run=141
.step run=142
.step run=143
.step run=144
.step run=145
.step run=146
.step run=147
.step run=148
.step run=149
.step run=150
.step run=151
.step run=152
.step run=153
.step run=154
.step run=155
.step run=156
.step run=157
.step run=158
.step run=159
.step run=160
.step run=161
.step run=162
.step run=163
.step run=164
.step run=165
.step run=166
.step run=167
.step run=168
.step run=169
.step run=170
.step run=171
.step run=172
.step run=173
.step run=174
.step run=175
.step run=176
.step run=177
.step run=178
.step run=179
.step run=180
.step run=181
.step run=182
.step run=183
.step run=184
.step run=185
.step run=186
.step run=187
.step run=188
.step run=189
.step run=190
.step run=191
.step run=192
.step run=193
.step run=194
.step run=195
.step run=196
.step run=197
.step run=198
.step run=199
.step run=200
.step run=201
.step run=202
.step run=203
.step run=204
.step run=205
.step run=206
.step run=207
.step run=208
.step run=209
.step run=210
.step run=211
.step run=212
.step run=213
.step run=214
.step run=215
.step run=216
.step run=217
.step run=218
.step run=219
.step run=220
.step run=221
.step run=222
.step run=223
.step run=224
.step run=225
.step run=226
.step run=227
.step run=228
.step run=229
.step run=230
.step run=231
.step run=232
.step run=233
.step run=234
.step run=235
.step run=236
.step run=237
.step run=238
.step run=239
.step run=240
.step run=241
.step run=242
.step run=243
.step run=244
.step run=245
.step run=246
.step run=247
.step run=248
.step run=249
.step run=250
.step run=251
.step run=252
.step run=253
.step run=254
.step run=255
.step run=256
.step run=257
.step run=258
.step run=259
.step run=260
.step run=261
.step run=262
.step run=263
.step run=264
.step run=265
.step run=266
.step run=267
.step run=268
.step run=269
.step run=270
.step run=271
.step run=272
.step run=273
.step run=274
.step run=275
.step run=276
.step run=277
.step run=278
.step run=279
.step run=280
.step run=281
.step run=282
.step run=283
.step run=284
.step run=285
.step run=286
.step run=287
.step run=288
.step run=289
.step run=290
.step run=291
.step run=292
.step run=293
.step run=294
.step run=295
.step run=296
.step run=297
.step run=298
.step run=299
.step run=300
.step run=301
.step run=302
.step run=303
.step run=304
.step run=305
.step run=306
.step run=307
.step run=308
.step run=309
.step run=310
.step run=311
.step run=312
.step run=313
.step run=314
.step run=315
.step run=316
.step run=317
.step run=318
.step run=319
.step run=320
.step run=321
.step run=322
.step run=323
.step run=324
.step run=325
.step run=326
.step run=327
.step run=328
.step run=329
.step run=330
.step run=331
.step run=332
.step run=333
.step run=334
.step run=335
.step run=336
.step run=337
.step run=338
.step run=339
.step run=340
.step run=341
.step run=342
.step run=343
.step run=344
.step run=345
.step run=346
.step run=347
.step run=348
.step run=349
.step run=350
.step run=351
.step run=352
.step run=353
.step run=354
.step run=355
.step run=356
.step run=357
.step run=358
.step run=359
.step run=360
.step run=361
.step run=362
.step run=363
.step run=364
.step run=365
.step run=366
.step run=367
.step run=368
.step run=369
.step run=370
.step run=371
.step run=372
.step run=373
.step run=374
.step run=375
.step run=376
.step run=377
.step run=378
.step run=379
.step run=380
.step run=381
.step run=382
.step run=383
.step run=384
.step run=385
.step run=386
.step run=387
.step run=388
.step run=389
.step run=390
.step run=391
.step run=392
.step run=393
.step run=394
.step run=395
.step run=396
.step run=397
.step run=398
.step run=399
.step run=400


Measurement: snm_max
  step	MAX(0.707*v(v1)-0.707*v(v2))	FROM	TO
     1	0.0392076	-0.03535	0.03535
     2	0.0228705	-0.03535	0.03535
     3	0.0349772	-0.03535	0.03535
     4	0.0212766	-0.03535	0.03535
     5	0.0109368	-0.03535	0.03535
     6	0.0106452	-0.03535	0.03535
     7	0.0150378	-0.03535	0.03535
     8	0.0367596	-0.03535	0.03535
     9	0.0322339	-0.03535	0.03535
    10	0.0282844	-0.03535	0.03535
    11	0.0391009	-0.03535	0.03535
    12	0.0263314	-0.03535	0.03535
    13	0.0216704	-0.03535	0.03535
    14	0.0235911	-0.03535	0.03535
    15	0.0357445	-0.03535	0.03535
    16	0.0284023	-0.03535	0.03535
    17	0.0283995	-0.03535	0.03535
    18	0.020393	-0.03535	0.03535
    19	0.0188735	-0.03535	0.03535
    20	0.0105372	-0.03535	0.03535
    21	0.0356418	-0.03535	0.03535
    22	0.0269642	-0.03535	0.03535
    23	0.0216295	-0.03535	0.03535
    24	0.0117908	-0.03535	0.03535
    25	0.00939453	-0.03535	0.03535
    26	0.0361674	-0.03535	0.03535
    27	0.00938971	-0.03535	0.03535
    28	0.038449	-0.03535	0.03535
    29	0.0326075	-0.03535	0.03535
    30	0.031326	-0.03535	0.03535
    31	0.0334425	-0.03535	0.03535
    32	0.0277754	-0.03535	0.03535
    33	0.0273238	-0.03535	0.03535
    34	0.0145231	-0.03535	0.03535
    35	0.0189432	-0.03535	0.03535
    36	0.0241895	-0.03535	0.03535
    37	0.0232038	-0.03535	0.03535
    38	0.0221174	-0.03535	0.03535
    39	0.0140371	-0.03535	0.03535
    40	0.0291448	-0.03535	0.03535
    41	0.0367099	-0.03535	0.03535
    42	0.0331724	-0.03535	0.03535
    43	0.0164459	-0.03535	0.03535
    44	0.0171018	-0.03535	0.03535
    45	0.0129147	-0.03535	0.03535
    46	0.0294382	-0.03535	0.03535
    47	0.0297278	-0.03535	0.03535
    48	0.0157103	-0.03535	0.03535
    49	0.0215043	-0.03535	0.03535
    50	0.0391029	-0.03535	0.03535
    51	0.014682	-0.03535	0.03535
    52	0.014805	-0.03535	0.03535
    53	0.0288535	-0.03535	0.03535
    54	0.0163101	-0.03535	0.03535
    55	0.0142022	-0.03535	0.03535
    56	0.00987467	-0.03535	0.03535
    57	0.0231221	-0.03535	0.03535
    58	0.0158829	-0.03535	0.03535
    59	0.0296182	-0.03535	0.03535
    60	0.0175728	-0.03535	0.03535
    61	0.0236331	-0.03535	0.03535
    62	0.0327668	-0.03535	0.03535
    63	0.0378509	-0.03535	0.03535
    64	0.019487	-0.03535	0.03535
    65	0.0310464	-0.03535	0.03535
    66	0.010476	-0.03535	0.03535
    67	0.0342528	-0.03535	0.03535
    68	0.0127616	-0.03535	0.03535
    69	0.0347943	-0.03535	0.03535
    70	0.0387112	-0.03535	0.03535
    71	0.0155213	-0.03535	0.03535
    72	0.0249321	-0.03535	0.03535
    73	0.0281291	-0.03535	0.03535
    74	0.0272317	-0.03535	0.03535
    75	0.0230433	-0.03535	0.03535
    76	0.0212185	-0.03535	0.03535
    77	0.0212187	-0.03535	0.03535
    78	0.029524	-0.03535	0.03535
    79	0.0377062	-0.03535	0.03535
    80	0.024704	-0.03535	0.03535
    81	0.0100535	-0.03535	0.03535
    82	0.0280626	-0.03535	0.03535
    83	0.0139692	-0.03535	0.03535
    84	0.0186146	-0.03535	0.03535
    85	0.0198736	-0.03535	0.03535
    86	0.0139026	-0.03535	0.03535
    87	0.0124156	-0.03535	0.03535
    88	0.0162255	-0.03535	0.03535
    89	0.0365812	-0.03535	0.03535
    90	0.0123313	-0.03535	0.03535
    91	0.0326511	-0.03535	0.03535
    92	0.014082	-0.03535	0.03535
    93	0.0180255	-0.03535	0.03535
    94	0.01165	-0.03535	0.03535
    95	0.0175872	-0.03535	0.03535
    96	0.0238428	-0.03535	0.03535
    97	0.0155923	-0.03535	0.03535
    98	0.0223371	-0.03535	0.03535
    99	0.0303985	-0.03535	0.03535
   100	0.0118689	-0.03535	0.03535
   101	0.0202214	-0.03535	0.03535
   102	0.0116933	-0.03535	0.03535
   103	0.029956	-0.03535	0.03535
   104	0.0109518	-0.03535	0.03535
   105	0.0269746	-0.03535	0.03535
   106	0.0143839	-0.03535	0.03535
   107	0.0313748	-0.03535	0.03535
   108	0.029101	-0.03535	0.03535
   109	0.0385136	-0.03535	0.03535
   110	0.00972817	-0.03535	0.03535
   111	0.0349055	-0.03535	0.03535
   112	0.0396878	-0.03535	0.03535
   113	0.0209439	-0.03535	0.03535
   114	0.0238496	-0.03535	0.03535
   115	0.0212383	-0.03535	0.03535
   116	0.0132753	-0.03535	0.03535
   117	0.0215691	-0.03535	0.03535
   118	0.0196309	-0.03535	0.03535
   119	0.0102272	-0.03535	0.03535
   120	0.0384757	-0.03535	0.03535
   121	0.020036	-0.03535	0.03535
   122	0.0151333	-0.03535	0.03535
   123	0.0336853	-0.03535	0.03535
   124	0.0334185	-0.03535	0.03535
   125	0.0166825	-0.03535	0.03535
   126	0.0205356	-0.03535	0.03535
   127	0.00974445	-0.03535	0.03535
   128	0.0237841	-0.03535	0.03535
   129	0.0141709	-0.03535	0.03535
   130	0.0151114	-0.03535	0.03535
   131	0.0226223	-0.03535	0.03535
   132	0.0229745	-0.03535	0.03535
   133	0.009312	-0.03535	0.03535
   134	0.0283635	-0.03535	0.03535
   135	0.0343922	-0.03535	0.03535
   136	0.0129758	-0.03535	0.03535
   137	0.0259879	-0.03535	0.03535
   138	0.0267749	-0.03535	0.03535
   139	0.0344469	-0.03535	0.03535
   140	0.00966923	-0.03535	0.03535
   141	0.0362133	-0.03535	0.03535
   142	0.00960335	-0.03535	0.03535
   143	0.0184375	-0.03535	0.03535
   144	0.0301962	-0.03535	0.03535
   145	0.00941314	-0.03535	0.03535
   146	0.0382649	-0.03535	0.03535
   147	0.0133486	-0.03535	0.03535
   148	0.0169607	-0.03535	0.03535
   149	0.0160134	-0.03535	0.03535
   150	0.0314504	-0.03535	0.03535
   151	0.0190913	-0.03535	0.03535
   152	0.0165327	-0.03535	0.03535
   153	0.028754	-0.03535	0.03535
   154	0.0102169	-0.03535	0.03535
   155	0.0165127	-0.03535	0.03535
   156	0.0214052	-0.03535	0.03535
   157	0.0271132	-0.03535	0.03535
   158	0.0242416	-0.03535	0.03535
   159	0.0165563	-0.03535	0.03535
   160	0.0186105	-0.03535	0.03535
   161	0.0097869	-0.03535	0.03535
   162	0.0308654	-0.03535	0.03535
   163	0.0267492	-0.03535	0.03535
   164	0.0368301	-0.03535	0.03535
   165	0.0109108	-0.03535	0.03535
   166	0.015662	-0.03535	0.03535
   167	0.0390053	-0.03535	0.03535
   168	0.0167711	-0.03535	0.03535
   169	0.0403996	-0.03535	0.03535
   170	0.0226763	-0.03535	0.03535
   171	0.0264447	-0.03535	0.03535
   172	0.0254886	-0.03535	0.03535
   173	0.0276042	-0.03535	0.03535
   174	0.0226412	-0.03535	0.03535
   175	0.0308282	-0.03535	0.03535
   176	0.0318407	-0.03535	0.03535
   177	0.0271633	-0.03535	0.03535
   178	0.0259766	-0.03535	0.03535
   179	0.0211526	-0.03535	0.03535
   180	0.0264059	-0.03535	0.03535
   181	0.0227011	-0.03535	0.03535
   182	0.0207696	-0.03535	0.03535
   183	0.0120075	-0.03535	0.03535
   184	0.0197376	-0.03535	0.03535
   185	0.034612	-0.03535	0.03535
   186	0.0284276	-0.03535	0.03535
   187	0.0270823	-0.03535	0.03535
   188	0.0199644	-0.03535	0.03535
   189	0.0109407	-0.03535	0.03535
   190	0.0302563	-0.03535	0.03535
   191	0.021003	-0.03535	0.03535
   192	0.0316414	-0.03535	0.03535
   193	0.0110059	-0.03535	0.03535
   194	0.0344049	-0.03535	0.03535
   195	0.0160642	-0.03535	0.03535
   196	0.0230508	-0.03535	0.03535
   197	0.0346536	-0.03535	0.03535
   198	0.0171815	-0.03535	0.03535
   199	0.0279282	-0.03535	0.03535
   200	0.0130261	-0.03535	0.03535
   201	0.0162545	-0.03535	0.03535
   202	0.0265621	-0.03535	0.03535
   203	0.0101099	-0.03535	0.03535
   204	0.0240912	-0.03535	0.03535
   205	0.0194439	-0.03535	0.03535
   206	0.0107293	-0.03535	0.03535
   207	0.0132358	-0.03535	0.03535
   208	0.0201313	-0.03535	0.03535
   209	0.0123686	-0.03535	0.03535
   210	0.0193915	-0.03535	0.03535
   211	0.011753	-0.03535	0.03535
   212	0.0163702	-0.03535	0.03535
   213	0.0132204	-0.03535	0.03535
   214	0.00950433	-0.03535	0.03535
   215	0.0236266	-0.03535	0.03535
   216	0.0318227	-0.03535	0.03535
   217	0.0351331	-0.03535	0.03535
   218	0.0121175	-0.03535	0.03535
   219	0.0302196	-0.03535	0.03535
   220	0.00938786	-0.03535	0.03535
   221	0.0265134	-0.03535	0.03535
   222	0.00935757	-0.03535	0.03535
   223	0.0244425	-0.03535	0.03535
   224	0.0141676	-0.03535	0.03535
   225	0.0321322	-0.03535	0.03535
   226	0.0380569	-0.03535	0.03535
   227	0.0280786	-0.03535	0.03535
   228	0.029447	-0.03535	0.03535
   229	0.0289074	-0.03535	0.03535
   230	0.0354341	-0.03535	0.03535
   231	0.0293889	-0.03535	0.03535
   232	0.0290896	-0.03535	0.03535
   233	0.028208	-0.03535	0.03535
   234	0.0232216	-0.03535	0.03535
   235	0.0161481	-0.03535	0.03535
   236	0.0401787	-0.03535	0.03535
   237	0.0375743	-0.03535	0.03535
   238	0.0263897	-0.03535	0.03535
   239	0.0293148	-0.03535	0.03535
   240	0.0233827	-0.03535	0.03535
   241	0.0146839	-0.03535	0.03535
   242	0.0115369	-0.03535	0.03535
   243	0.0216434	-0.03535	0.03535
   244	0.030995	-0.03535	0.03535
   245	0.00936837	-0.03535	0.03535
   246	0.0245158	-0.03535	0.03535
   247	0.0150283	-0.03535	0.03535
   248	0.0136637	-0.03535	0.03535
   249	0.0103195	-0.03535	0.03535
   250	0.012317	-0.03535	0.03535
   251	0.0129231	-0.03535	0.03535
   252	0.0208758	-0.03535	0.03535
   253	0.0208448	-0.03535	0.03535
   254	0.0267768	-0.03535	0.03535
   255	0.0235018	-0.03535	0.03535
   256	0.0300894	-0.03535	0.03535
   257	0.038434	-0.03535	0.03535
   258	0.0237482	-0.03535	0.03535
   259	0.0264607	-0.03535	0.03535
   260	0.0188462	-0.03535	0.03535
   261	0.0250458	-0.03535	0.03535
   262	0.0108653	-0.03535	0.03535
   263	0.0176443	-0.03535	0.03535
   264	0.0138989	-0.03535	0.03535
   265	0.0354689	-0.03535	0.03535
   266	0.028967	-0.03535	0.03535
   267	0.0322873	-0.03535	0.03535
   268	0.0189134	-0.03535	0.03535
   269	0.0199903	-0.03535	0.03535
   270	0.0339021	-0.03535	0.03535
   271	0.00941347	-0.03535	0.03535
   272	0.00929012	-0.03535	0.03535
   273	0.0229279	-0.03535	0.03535
   274	0.0210425	-0.03535	0.03535
   275	0.014599	-0.03535	0.03535
   276	0.0387241	-0.03535	0.03535
   277	0.0305583	-0.03535	0.03535
   278	0.0193159	-0.03535	0.03535
   279	0.023769	-0.03535	0.03535
   280	0.0171435	-0.03535	0.03535
   281	0.0169199	-0.03535	0.03535
   282	0.0195783	-0.03535	0.03535
   283	0.0294599	-0.03535	0.03535
   284	0.0154809	-0.03535	0.03535
   285	0.0222483	-0.03535	0.03535
   286	0.0160688	-0.03535	0.03535
   287	0.0252357	-0.03535	0.03535
   288	0.0201177	-0.03535	0.03535
   289	0.0237823	-0.03535	0.03535
   290	0.0155755	-0.03535	0.03535
   291	0.0290102	-0.03535	0.03535
   292	0.0287667	-0.03535	0.03535
   293	0.0322192	-0.03535	0.03535
   294	0.0196234	-0.03535	0.03535
   295	0.0266741	-0.03535	0.03535
   296	0.0167467	-0.03535	0.03535
   297	0.013416	-0.03535	0.03535
   298	0.0207278	-0.03535	0.03535
   299	0.0107934	-0.03535	0.03535
   300	0.0327774	-0.03535	0.03535
   301	0.0201052	-0.03535	0.03535
   302	0.0357502	-0.03535	0.03535
   303	0.0269278	-0.03535	0.03535
   304	0.0291136	-0.03535	0.03535
   305	0.0351134	-0.03535	0.03535
   306	0.0333692	-0.03535	0.03535
   307	0.0274245	-0.03535	0.03535
   308	0.0268334	-0.03535	0.03535
   309	0.0155894	-0.03535	0.03535
   310	0.0241404	-0.03535	0.03535
   311	0.0263154	-0.03535	0.03535
   312	0.0170938	-0.03535	0.03535
   313	0.0133307	-0.03535	0.03535
   314	0.00927228	-0.03535	0.03535
   315	0.0213386	-0.03535	0.03535
   316	0.0205669	-0.03535	0.03535
   317	0.0357668	-0.03535	0.03535
   318	0.0196459	-0.03535	0.03535
   319	0.0395463	-0.03535	0.03535
   320	0.0324484	-0.03535	0.03535
   321	0.034729	-0.03535	0.03535
   322	0.00978055	-0.03535	0.03535
   323	0.0215867	-0.03535	0.03535
   324	0.0251248	-0.03535	0.03535
   325	0.0177157	-0.03535	0.03535
   326	0.0308656	-0.03535	0.03535
   327	0.00953465	-0.03535	0.03535
   328	0.0100624	-0.03535	0.03535
   329	0.0113827	-0.03535	0.03535
   330	0.011033	-0.03535	0.03535
   331	0.0242029	-0.03535	0.03535
   332	0.0266794	-0.03535	0.03535
   333	0.0139563	-0.03535	0.03535
   334	0.0122629	-0.03535	0.03535
   335	0.0156531	-0.03535	0.03535
   336	0.0154889	-0.03535	0.03535
   337	0.0322224	-0.03535	0.03535
   338	0.0285294	-0.03535	0.03535
   339	0.0355399	-0.03535	0.03535
   340	0.0366806	-0.03535	0.03535
   341	0.0114887	-0.03535	0.03535
   342	0.030517	-0.03535	0.03535
   343	0.0216599	-0.03535	0.03535
   344	0.0278887	-0.03535	0.03535
   345	0.031512	-0.03535	0.03535
   346	0.00937174	-0.03535	0.03535
   347	0.023133	-0.03535	0.03535
   348	0.0155866	-0.03535	0.03535
   349	0.0396456	-0.03535	0.03535
   350	0.0136002	-0.03535	0.03535
   351	0.0118289	-0.03535	0.03535
   352	0.0250963	-0.03535	0.03535
   353	0.0150363	-0.03535	0.03535
   354	0.0179793	-0.03535	0.03535
   355	0.0138849	-0.03535	0.03535
   356	0.0220961	-0.03535	0.03535
   357	0.00938449	-0.03535	0.03535
   358	0.00960968	-0.03535	0.03535
   359	0.0136752	-0.03535	0.03535
   360	0.0198663	-0.03535	0.03535
   361	0.0379024	-0.03535	0.03535
   362	0.0304755	-0.03535	0.03535
   363	0.0301431	-0.03535	0.03535
   364	0.0266555	-0.03535	0.03535
   365	0.0365784	-0.03535	0.03535
   366	0.0342481	-0.03535	0.03535
   367	0.0141429	-0.03535	0.03535
   368	0.0107818	-0.03535	0.03535
   369	0.0095142	-0.03535	0.03535
   370	0.027426	-0.03535	0.03535
   371	0.0223416	-0.03535	0.03535
   372	0.0207829	-0.03535	0.03535
   373	0.0369933	-0.03535	0.03535
   374	0.025867	-0.03535	0.03535
   375	0.0110892	-0.03535	0.03535
   376	0.0259858	-0.03535	0.03535
   377	0.0110403	-0.03535	0.03535
   378	0.0207227	-0.03535	0.03535
   379	0.0394487	-0.03535	0.03535
   380	0.0133936	-0.03535	0.03535
   381	0.0182015	-0.03535	0.03535
   382	0.0367207	-0.03535	0.03535
   383	0.0333747	-0.03535	0.03535
   384	0.00959289	-0.03535	0.03535
   385	0.0107565	-0.03535	0.03535
   386	0.0278208	-0.03535	0.03535
   387	0.00988704	-0.03535	0.03535
   388	0.015182	-0.03535	0.03535
   389	0.0307847	-0.03535	0.03535
   390	0.0187415	-0.03535	0.03535
   391	0.0373238	-0.03535	0.03535
   392	0.010556	-0.03535	0.03535
   393	0.0274004	-0.03535	0.03535
   394	0.0112818	-0.03535	0.03535
   395	0.0167483	-0.03535	0.03535
   396	0.0300563	-0.03535	0.03535
   397	0.0190414	-0.03535	0.03535
   398	0.0226026	-0.03535	0.03535
   399	0.0244006	-0.03535	0.03535
   400	0.0355943	-0.03535	0.03535

Measurement: snm_min
  step	MIN(0.707*v(v1)-0.707*v(v2))	FROM	TO
     1	-0.0392076	-0.03535	0.03535
     2	-0.0228691	-0.03535	0.03535
     3	-0.0349773	-0.03535	0.03535
     4	-0.0212747	-0.03535	0.03535
     5	-0.0109368	-0.03535	0.03535
     6	-0.0106452	-0.03535	0.03535
     7	-0.0150378	-0.03535	0.03535
     8	-0.0367598	-0.03535	0.03535
     9	-0.0322337	-0.03535	0.03535
    10	-0.0282838	-0.03535	0.03535
    11	-0.0391009	-0.03535	0.03535
    12	-0.0263307	-0.03535	0.03535
    13	-0.0216687	-0.03535	0.03535
    14	-0.02359	-0.03535	0.03535
    15	-0.0357446	-0.03535	0.03535
    16	-0.0284017	-0.03535	0.03535
    17	-0.0283989	-0.03535	0.03535
    18	-0.0203907	-0.03535	0.03535
    19	-0.0188735	-0.03535	0.03535
    20	-0.0105372	-0.03535	0.03535
    21	-0.035642	-0.03535	0.03535
    22	-0.0269635	-0.03535	0.03535
    23	-0.0216278	-0.03535	0.03535
    24	-0.0117908	-0.03535	0.03535
    25	-0.00939453	-0.03535	0.03535
    26	-0.0361675	-0.03535	0.03535
    27	-0.00938971	-0.03535	0.03535
    28	-0.0384491	-0.03535	0.03535
    29	-0.0326073	-0.03535	0.03535
    30	-0.0313256	-0.03535	0.03535
    31	-0.0334423	-0.03535	0.03535
    32	-0.0277747	-0.03535	0.03535
    33	-0.0273231	-0.03535	0.03535
    34	-0.0145231	-0.03535	0.03535
    35	-0.0189432	-0.03535	0.03535
    36	-0.0241884	-0.03535	0.03535
    37	-0.0232026	-0.03535	0.03535
    38	-0.0221159	-0.03535	0.03535
    39	-0.0140371	-0.03535	0.03535
    40	-0.0291443	-0.03535	0.03535
    41	-0.0367102	-0.03535	0.03535
    42	-0.0331722	-0.03535	0.03535
    43	-0.0164459	-0.03535	0.03535
    44	-0.0171018	-0.03535	0.03535
    45	-0.0129147	-0.03535	0.03535
    46	-0.0294377	-0.03535	0.03535
    47	-0.0297273	-0.03535	0.03535
    48	-0.0157103	-0.03535	0.03535
    49	-0.0215024	-0.03535	0.03535
    50	-0.0391029	-0.03535	0.03535
    51	-0.014682	-0.03535	0.03535
    52	-0.014805	-0.03535	0.03535
    53	-0.028853	-0.03535	0.03535
    54	-0.0163101	-0.03535	0.03535
    55	-0.0142022	-0.03535	0.03535
    56	-0.00987467	-0.03535	0.03535
    57	-0.0231208	-0.03535	0.03535
    58	-0.0158829	-0.03535	0.03535
    59	-0.0296178	-0.03535	0.03535
    60	-0.0175728	-0.03535	0.03535
    61	-0.023632	-0.03535	0.03535
    62	-0.0327666	-0.03535	0.03535
    63	-0.0378511	-0.03535	0.03535
    64	-0.0194841	-0.03535	0.03535
    65	-0.031046	-0.03535	0.03535
    66	-0.010476	-0.03535	0.03535
    67	-0.0342528	-0.03535	0.03535
    68	-0.0127616	-0.03535	0.03535
    69	-0.0347943	-0.03535	0.03535
    70	-0.0387113	-0.03535	0.03535
    71	-0.0155213	-0.03535	0.03535
    72	-0.0249312	-0.03535	0.03535
    73	-0.0281285	-0.03535	0.03535
    74	-0.027231	-0.03535	0.03535
    75	-0.0230421	-0.03535	0.03535
    76	-0.0212166	-0.03535	0.03535
    77	-0.0212168	-0.03535	0.03535
    78	-0.0295235	-0.03535	0.03535
    79	-0.0377064	-0.03535	0.03535
    80	-0.0247031	-0.03535	0.03535
    81	-0.0100535	-0.03535	0.03535
    82	-0.028062	-0.03535	0.03535
    83	-0.0139692	-0.03535	0.03535
    84	-0.0186146	-0.03535	0.03535
    85	-0.019871	-0.03535	0.03535
    86	-0.0139026	-0.03535	0.03535
    87	-0.0124156	-0.03535	0.03535
    88	-0.0162255	-0.03535	0.03535
    89	-0.0365814	-0.03535	0.03535
    90	-0.0123313	-0.03535	0.03535
    91	-0.0326509	-0.03535	0.03535
    92	-0.014082	-0.03535	0.03535
    93	-0.0180255	-0.03535	0.03535
    94	-0.01165	-0.03535	0.03535
    95	-0.0175872	-0.03535	0.03535
    96	-0.0238418	-0.03535	0.03535
    97	-0.0155923	-0.03535	0.03535
    98	-0.0223356	-0.03535	0.03535
    99	-0.030398	-0.03535	0.03535
   100	-0.0118689	-0.03535	0.03535
   101	-0.020219	-0.03535	0.03535
   102	-0.0116933	-0.03535	0.03535
   103	-0.0299555	-0.03535	0.03535
   104	-0.0109518	-0.03535	0.03535
   105	-0.0269739	-0.03535	0.03535
   106	-0.0143839	-0.03535	0.03535
   107	-0.0313745	-0.03535	0.03535
   108	-0.0291004	-0.03535	0.03535
   109	-0.0385137	-0.03535	0.03535
   110	-0.00972816	-0.03535	0.03535
   111	-0.0349055	-0.03535	0.03535
   112	-0.0396877	-0.03535	0.03535
   113	-0.0209419	-0.03535	0.03535
   114	-0.0238485	-0.03535	0.03535
   115	-0.0212365	-0.03535	0.03535
   116	-0.0132753	-0.03535	0.03535
   117	-0.0215673	-0.03535	0.03535
   118	-0.0196282	-0.03535	0.03535
   119	-0.0102272	-0.03535	0.03535
   120	-0.0384758	-0.03535	0.03535
   121	-0.0200335	-0.03535	0.03535
   122	-0.0151333	-0.03535	0.03535
   123	-0.0336852	-0.03535	0.03535
   124	-0.0334183	-0.03535	0.03535
   125	-0.0166825	-0.03535	0.03535
   126	-0.0205332	-0.03535	0.03535
   127	-0.00974444	-0.03535	0.03535
   128	-0.023783	-0.03535	0.03535
   129	-0.0141709	-0.03535	0.03535
   130	-0.0151114	-0.03535	0.03535
   131	-0.022621	-0.03535	0.03535
   132	-0.0229732	-0.03535	0.03535
   133	-0.00931199	-0.03535	0.03535
   134	-0.0283629	-0.03535	0.03535
   135	-0.0343922	-0.03535	0.03535
   136	-0.0129757	-0.03535	0.03535
   137	-0.0259871	-0.03535	0.03535
   138	-0.0267742	-0.03535	0.03535
   139	-0.0344469	-0.03535	0.03535
   140	-0.00966922	-0.03535	0.03535
   141	-0.0362134	-0.03535	0.03535
   142	-0.00960334	-0.03535	0.03535
   143	-0.0184375	-0.03535	0.03535
   144	-0.0301957	-0.03535	0.03535
   145	-0.00941313	-0.03535	0.03535
   146	-0.038265	-0.03535	0.03535
   147	-0.0133486	-0.03535	0.03535
   148	-0.0169607	-0.03535	0.03535
   149	-0.0160134	-0.03535	0.03535
   150	-0.03145	-0.03535	0.03535
   151	-0.0190913	-0.03535	0.03535
   152	-0.0165327	-0.03535	0.03535
   153	-0.0287534	-0.03535	0.03535
   154	-0.0102169	-0.03535	0.03535
   155	-0.0165127	-0.03535	0.03535
   156	-0.0214034	-0.03535	0.03535
   157	-0.0271126	-0.03535	0.03535
   158	-0.0242406	-0.03535	0.03535
   159	-0.0165563	-0.03535	0.03535
   160	-0.0186105	-0.03535	0.03535
   161	-0.0097869	-0.03535	0.03535
   162	-0.030865	-0.03535	0.03535
   163	-0.0267484	-0.03535	0.03535
   164	-0.0368303	-0.03535	0.03535
   165	-0.0109108	-0.03535	0.03535
   166	-0.015662	-0.03535	0.03535
   167	-0.0390053	-0.03535	0.03535
   168	-0.0167711	-0.03535	0.03535
   169	-0.0403995	-0.03535	0.03535
   170	-0.0226749	-0.03535	0.03535
   171	-0.0264439	-0.03535	0.03535
   172	-0.0254877	-0.03535	0.03535
   173	-0.0276036	-0.03535	0.03535
   174	-0.0226399	-0.03535	0.03535
   175	-0.0308278	-0.03535	0.03535
   176	-0.0318406	-0.03535	0.03535
   177	-0.0271627	-0.03535	0.03535
   178	-0.0259758	-0.03535	0.03535
   179	-0.0211506	-0.03535	0.03535
   180	-0.0264052	-0.03535	0.03535
   181	-0.0226997	-0.03535	0.03535
   182	-0.0207675	-0.03535	0.03535
   183	-0.0120075	-0.03535	0.03535
   184	-0.0197348	-0.03535	0.03535
   185	-0.034612	-0.03535	0.03535
   186	-0.0284271	-0.03535	0.03535
   187	-0.0270817	-0.03535	0.03535
   188	-0.0199617	-0.03535	0.03535
   189	-0.0109407	-0.03535	0.03535
   190	-0.0302558	-0.03535	0.03535
   191	-0.0210009	-0.03535	0.03535
   192	-0.031641	-0.03535	0.03535
   193	-0.0110059	-0.03535	0.03535
   194	-0.0344049	-0.03535	0.03535
   195	-0.0160642	-0.03535	0.03535
   196	-0.0230495	-0.03535	0.03535
   197	-0.0346536	-0.03535	0.03535
   198	-0.0171815	-0.03535	0.03535
   199	-0.0279276	-0.03535	0.03535
   200	-0.0130261	-0.03535	0.03535
   201	-0.0162545	-0.03535	0.03535
   202	-0.0265613	-0.03535	0.03535
   203	-0.0101099	-0.03535	0.03535
   204	-0.0240902	-0.03535	0.03535
   205	-0.0194439	-0.03535	0.03535
   206	-0.0107293	-0.03535	0.03535
   207	-0.0132358	-0.03535	0.03535
   208	-0.0201288	-0.03535	0.03535
   209	-0.0123686	-0.03535	0.03535
   210	-0.0193915	-0.03535	0.03535
   211	-0.011753	-0.03535	0.03535
   212	-0.0163702	-0.03535	0.03535
   213	-0.0132203	-0.03535	0.03535
   214	-0.00950432	-0.03535	0.03535
   215	-0.0236254	-0.03535	0.03535
   216	-0.0318224	-0.03535	0.03535
   217	-0.0351332	-0.03535	0.03535
   218	-0.0121175	-0.03535	0.03535
   219	-0.0302191	-0.03535	0.03535
   220	-0.00938786	-0.03535	0.03535
   221	-0.0265126	-0.03535	0.03535
   222	-0.00935756	-0.03535	0.03535
   223	-0.0244416	-0.03535	0.03535
   224	-0.0141676	-0.03535	0.03535
   225	-0.0321319	-0.03535	0.03535
   226	-0.0380571	-0.03535	0.03535
   227	-0.028078	-0.03535	0.03535
   228	-0.0294465	-0.03535	0.03535
   229	-0.0289069	-0.03535	0.03535
   230	-0.0354343	-0.03535	0.03535
   231	-0.0293884	-0.03535	0.03535
   232	-0.0290891	-0.03535	0.03535
   233	-0.0282074	-0.03535	0.03535
   234	-0.0232204	-0.03535	0.03535
   235	-0.0161481	-0.03535	0.03535
   236	-0.0401785	-0.03535	0.03535
   237	-0.0375745	-0.03535	0.03535
   238	-0.0263889	-0.03535	0.03535
   239	-0.0293142	-0.03535	0.03535
   240	-0.0233815	-0.03535	0.03535
   241	-0.0146839	-0.03535	0.03535
   242	-0.0115369	-0.03535	0.03535
   243	-0.0216416	-0.03535	0.03535
   244	-0.0309946	-0.03535	0.03535
   245	-0.00936836	-0.03535	0.03535
   246	-0.0245148	-0.03535	0.03535
   247	-0.0150283	-0.03535	0.03535
   248	-0.0136637	-0.03535	0.03535
   249	-0.0103195	-0.03535	0.03535
   250	-0.012317	-0.03535	0.03535
   251	-0.0129231	-0.03535	0.03535
   252	-0.0208737	-0.03535	0.03535
   253	-0.0208427	-0.03535	0.03535
   254	-0.0267762	-0.03535	0.03535
   255	-0.0235006	-0.03535	0.03535
   256	-0.0300889	-0.03535	0.03535
   257	-0.0384342	-0.03535	0.03535
   258	-0.0237472	-0.03535	0.03535
   259	-0.0264599	-0.03535	0.03535
   260	-0.0188462	-0.03535	0.03535
   261	-0.0250449	-0.03535	0.03535
   262	-0.0108653	-0.03535	0.03535
   263	-0.0176443	-0.03535	0.03535
   264	-0.0138989	-0.03535	0.03535
   265	-0.0354691	-0.03535	0.03535
   266	-0.0289665	-0.03535	0.03535
   267	-0.032287	-0.03535	0.03535
   268	-0.0189134	-0.03535	0.03535
   269	-0.0199877	-0.03535	0.03535
   270	-0.033902	-0.03535	0.03535
   271	-0.00941346	-0.03535	0.03535
   272	-0.00929011	-0.03535	0.03535
   273	-0.0229265	-0.03535	0.03535
   274	-0.0210405	-0.03535	0.03535
   275	-0.014599	-0.03535	0.03535
   276	-0.0387242	-0.03535	0.03535
   277	-0.0305578	-0.03535	0.03535
   278	-0.0193159	-0.03535	0.03535
   279	-0.023768	-0.03535	0.03535
   280	-0.0171435	-0.03535	0.03535
   281	-0.0169199	-0.03535	0.03535
   282	-0.0195783	-0.03535	0.03535
   283	-0.0294594	-0.03535	0.03535
   284	-0.0154809	-0.03535	0.03535
   285	-0.0222468	-0.03535	0.03535
   286	-0.0160688	-0.03535	0.03535
   287	-0.0252349	-0.03535	0.03535
   288	-0.0201154	-0.03535	0.03535
   289	-0.0237812	-0.03535	0.03535
   290	-0.0155755	-0.03535	0.03535
   291	-0.0290097	-0.03535	0.03535
   292	-0.0287662	-0.03535	0.03535
   293	-0.0322189	-0.03535	0.03535
   294	-0.0196205	-0.03535	0.03535
   295	-0.0266734	-0.03535	0.03535
   296	-0.0167467	-0.03535	0.03535
   297	-0.013416	-0.03535	0.03535
   298	-0.0207257	-0.03535	0.03535
   299	-0.0107934	-0.03535	0.03535
   300	-0.0327773	-0.03535	0.03535
   301	-0.0201027	-0.03535	0.03535
   302	-0.0357504	-0.03535	0.03535
   303	-0.0269272	-0.03535	0.03535
   304	-0.0291131	-0.03535	0.03535
   305	-0.0351135	-0.03535	0.03535
   306	-0.0333691	-0.03535	0.03535
   307	-0.0274238	-0.03535	0.03535
   308	-0.0268327	-0.03535	0.03535
   309	-0.0155894	-0.03535	0.03535
   310	-0.0241393	-0.03535	0.03535
   311	-0.0263147	-0.03535	0.03535
   312	-0.0170938	-0.03535	0.03535
   313	-0.0133307	-0.03535	0.03535
   314	-0.00927227	-0.03535	0.03535
   315	-0.0213367	-0.03535	0.03535
   316	-0.0205647	-0.03535	0.03535
   317	-0.035767	-0.03535	0.03535
   318	-0.0196431	-0.03535	0.03535
   319	-0.0395463	-0.03535	0.03535
   320	-0.0324481	-0.03535	0.03535
   321	-0.034729	-0.03535	0.03535
   322	-0.00978054	-0.03535	0.03535
   323	-0.021585	-0.03535	0.03535
   324	-0.0251239	-0.03535	0.03535
   325	-0.0177157	-0.03535	0.03535
   326	-0.0308652	-0.03535	0.03535
   327	-0.00953464	-0.03535	0.03535
   328	-0.0100624	-0.03535	0.03535
   329	-0.0113827	-0.03535	0.03535
   330	-0.011033	-0.03535	0.03535
   331	-0.0242019	-0.03535	0.03535
   332	-0.0266788	-0.03535	0.03535
   333	-0.0139563	-0.03535	0.03535
   334	-0.0122629	-0.03535	0.03535
   335	-0.0156531	-0.03535	0.03535
   336	-0.0154889	-0.03535	0.03535
   337	-0.0322221	-0.03535	0.03535
   338	-0.0285288	-0.03535	0.03535
   339	-0.03554	-0.03535	0.03535
   340	-0.0366808	-0.03535	0.03535
   341	-0.0114887	-0.03535	0.03535
   342	-0.0305165	-0.03535	0.03535
   343	-0.0216581	-0.03535	0.03535
   344	-0.027888	-0.03535	0.03535
   345	-0.0315117	-0.03535	0.03535
   346	-0.00937173	-0.03535	0.03535
   347	-0.0231317	-0.03535	0.03535
   348	-0.0155866	-0.03535	0.03535
   349	-0.0396455	-0.03535	0.03535
   350	-0.0136002	-0.03535	0.03535
   351	-0.0118289	-0.03535	0.03535
   352	-0.0250955	-0.03535	0.03535
   353	-0.0150363	-0.03535	0.03535
   354	-0.0179793	-0.03535	0.03535
   355	-0.0138849	-0.03535	0.03535
   356	-0.0220946	-0.03535	0.03535
   357	-0.00938449	-0.03535	0.03535
   358	-0.00960968	-0.03535	0.03535
   359	-0.0136752	-0.03535	0.03535
   360	-0.0198636	-0.03535	0.03535
   361	-0.0379027	-0.03535	0.03535
   362	-0.0304751	-0.03535	0.03535
   363	-0.0301426	-0.03535	0.03535
   364	-0.0266548	-0.03535	0.03535
   365	-0.0365786	-0.03535	0.03535
   366	-0.0342481	-0.03535	0.03535
   367	-0.0141429	-0.03535	0.03535
   368	-0.0107818	-0.03535	0.03535
   369	-0.00951419	-0.03535	0.03535
   370	-0.0274254	-0.03535	0.03535
   371	-0.0223402	-0.03535	0.03535
   372	-0.0207808	-0.03535	0.03535
   373	-0.0369935	-0.03535	0.03535
   374	-0.0258662	-0.03535	0.03535
   375	-0.0110892	-0.03535	0.03535
   376	-0.025985	-0.03535	0.03535
   377	-0.0110403	-0.03535	0.03535
   378	-0.0207205	-0.03535	0.03535
   379	-0.0394487	-0.03535	0.03535
   380	-0.0133936	-0.03535	0.03535
   381	-0.0182015	-0.03535	0.03535
   382	-0.0367209	-0.03535	0.03535
   383	-0.0333746	-0.03535	0.03535
   384	-0.00959289	-0.03535	0.03535
   385	-0.0107565	-0.03535	0.03535
   386	-0.0278202	-0.03535	0.03535
   387	-0.00988704	-0.03535	0.03535
   388	-0.015182	-0.03535	0.03535
   389	-0.0307843	-0.03535	0.03535
   390	-0.0187415	-0.03535	0.03535
   391	-0.0373241	-0.03535	0.03535
   392	-0.010556	-0.03535	0.03535
   393	-0.0273998	-0.03535	0.03535
   394	-0.0112818	-0.03535	0.03535
   395	-0.0167483	-0.03535	0.03535
   396	-0.0300559	-0.03535	0.03535
   397	-0.0190414	-0.03535	0.03535
   398	-0.0226012	-0.03535	0.03535
   399	-0.0243997	-0.03535	0.03535
   400	-0.0355944	-0.03535	0.03535


Date: Wed Dec 13 19:05:05 2023
Total elapsed time: 7.444 seconds.

tnom = 27
temp = 27
method = trap
totiter = 33
traniter = 0
tranpoints = 0
accept = 0
rejected = 0
matrix size = 33
fillins = 28
solver = Normal
Avg thread counts: 8.0/0.0/8.0/8.0
Matrix Compiler1:     125 opcodes
Matrix Compiler2: 2.78 KB object code size
