Circuit: * D:\Disco D\universita\magistrale\progettazione-low-power\progetti\progetto-2\ltspice\models\gaussian-vth\hold\gaussian_vth_hold.asc

WARNING: Node NC_01 is floating.
WARNING: Node NC_02 is floating.
WARNING: Node NC_03 is floating.
WARNING: Node NC_04 is floating.
WARNING: Node NC_05 is floating.

WARNING: Less than two connections to node nc_01.  This node is used by vsweep.
WARNING: Less than two connections to node nc_02.  This node is used by e2.
WARNING: Less than two connections to node nc_03.  This node is used by e8.
WARNING: Less than two connections to node nc_04.  This node is used by m5.
WARNING: Less than two connections to node nc_05.  This node is used by m6.
Warning: Pd = 0 is less than W.
Warning: Ps = 0 is less than W.
Warning: Pd = 0 is less than W.
Warning: Ps = 0 is less than W.
Warning: Pd = 0 is less than W.
Warning: Ps = 0 is less than W.
.step run=1
.step run=2
.step run=3
.step run=4
.step run=5
.step run=6
.step run=7
.step run=8
.step run=9
.step run=10
.step run=11
.step run=12
.step run=13
.step run=14
.step run=15
.step run=16
.step run=17
.step run=18
.step run=19
.step run=20
.step run=21
.step run=22
.step run=23
.step run=24
.step run=25
.step run=26
.step run=27
.step run=28
.step run=29
.step run=30
.step run=31
.step run=32
.step run=33
.step run=34
.step run=35
.step run=36
.step run=37
.step run=38
.step run=39
.step run=40
.step run=41
.step run=42
.step run=43
.step run=44
.step run=45
.step run=46
.step run=47
.step run=48
.step run=49
.step run=50
.step run=51
.step run=52
.step run=53
.step run=54
.step run=55
.step run=56
.step run=57
.step run=58
.step run=59
.step run=60
.step run=61
.step run=62
.step run=63
.step run=64
.step run=65
.step run=66
.step run=67
.step run=68
.step run=69
.step run=70
.step run=71
.step run=72
.step run=73
.step run=74
.step run=75
.step run=76
.step run=77
.step run=78
.step run=79
.step run=80
.step run=81
.step run=82
.step run=83
.step run=84
.step run=85
.step run=86
.step run=87
.step run=88
.step run=89
.step run=90
.step run=91
.step run=92
.step run=93
.step run=94
.step run=95
.step run=96
.step run=97
.step run=98
.step run=99
.step run=100
.step run=101
.step run=102
.step run=103
.step run=104
.step run=105
.step run=106
.step run=107
.step run=108
.step run=109
.step run=110
.step run=111
.step run=112
.step run=113
.step run=114
.step run=115
.step run=116
.step run=117
.step run=118
.step run=119
.step run=120
.step run=121
.step run=122
.step run=123
.step run=124
.step run=125
.step run=126
.step run=127
.step run=128
.step run=129
.step run=130
.step run=131
.step run=132
.step run=133
.step run=134
.step run=135
.step run=136
.step run=137
.step run=138
.step run=139
.step run=140
.step run=141
.step run=142
.step run=143
.step run=144
.step run=145
.step run=146
.step run=147
.step run=148
.step run=149
.step run=150
.step run=151
.step run=152
.step run=153
.step run=154
.step run=155
.step run=156
.step run=157
.step run=158
.step run=159
.step run=160
.step run=161
.step run=162
.step run=163
.step run=164
.step run=165
.step run=166
.step run=167
.step run=168
.step run=169
.step run=170
.step run=171
.step run=172
.step run=173
.step run=174
.step run=175
.step run=176
.step run=177
.step run=178
.step run=179
.step run=180
.step run=181
.step run=182
.step run=183
.step run=184
.step run=185
.step run=186
.step run=187
.step run=188
.step run=189
.step run=190
.step run=191
.step run=192
.step run=193
.step run=194
.step run=195
.step run=196
.step run=197
.step run=198
.step run=199
.step run=200
.step run=201
.step run=202
.step run=203
.step run=204
.step run=205
.step run=206
.step run=207
.step run=208
.step run=209
.step run=210
.step run=211
.step run=212
.step run=213
.step run=214
.step run=215
.step run=216
.step run=217
.step run=218
.step run=219
.step run=220
.step run=221
.step run=222
.step run=223
.step run=224
.step run=225
.step run=226
.step run=227
.step run=228
.step run=229
.step run=230
.step run=231
.step run=232
.step run=233
.step run=234
.step run=235
.step run=236
.step run=237
.step run=238
.step run=239
.step run=240
.step run=241
.step run=242
.step run=243
.step run=244
.step run=245
.step run=246
.step run=247
.step run=248
.step run=249
.step run=250
.step run=251
.step run=252
.step run=253
.step run=254
.step run=255
.step run=256
.step run=257
.step run=258
.step run=259
.step run=260
.step run=261
.step run=262
.step run=263
.step run=264
.step run=265
.step run=266
.step run=267
.step run=268
.step run=269
.step run=270
.step run=271
.step run=272
.step run=273
.step run=274
.step run=275
.step run=276
.step run=277
.step run=278
.step run=279
.step run=280
.step run=281
.step run=282
.step run=283
.step run=284
.step run=285
.step run=286
.step run=287
.step run=288
.step run=289
.step run=290
.step run=291
.step run=292
.step run=293
.step run=294
.step run=295
.step run=296
.step run=297
.step run=298
.step run=299
.step run=300
.step run=301
.step run=302
.step run=303
.step run=304
.step run=305
.step run=306
.step run=307
.step run=308
.step run=309
.step run=310
.step run=311
.step run=312
.step run=313
.step run=314
.step run=315
.step run=316
.step run=317
.step run=318
.step run=319
.step run=320
.step run=321
.step run=322
.step run=323
.step run=324
.step run=325
.step run=326
.step run=327
.step run=328
.step run=329
.step run=330
.step run=331
.step run=332
.step run=333
.step run=334
.step run=335
.step run=336
.step run=337
.step run=338
.step run=339
.step run=340
.step run=341
.step run=342
.step run=343
.step run=344
.step run=345
.step run=346
.step run=347
.step run=348
.step run=349
.step run=350
.step run=351
.step run=352
.step run=353
.step run=354
.step run=355
.step run=356
.step run=357
.step run=358
.step run=359
.step run=360
.step run=361
.step run=362
.step run=363
.step run=364
.step run=365
.step run=366
.step run=367
.step run=368
.step run=369
.step run=370
.step run=371
.step run=372
.step run=373
.step run=374
.step run=375
.step run=376
.step run=377
.step run=378
.step run=379
.step run=380
.step run=381
.step run=382
.step run=383
.step run=384
.step run=385
.step run=386
.step run=387
.step run=388
.step run=389
.step run=390
.step run=391
.step run=392
.step run=393
.step run=394
.step run=395
.step run=396
.step run=397
.step run=398
.step run=399
.step run=400


Measurement: snm_max
  step	MAX(0.707*v(v1)-0.707*v(v2))	FROM	TO
     1	0.0176477	-0.17675	0.17675
     2	0.0664322	-0.17675	0.17675
     3	0.0417747	-0.17675	0.17675
     4	0.068011	-0.17675	0.17675
     5	0.0838357	-0.17675	0.17675
     6	0.0827389	-0.17675	0.17675
     7	0.0767448	-0.17675	0.17675
     8	0.0336185	-0.17675	0.17675
     9	0.047973	-0.17675	0.17675
    10	0.056699	-0.17675	0.17675
    11	0.0187786	-0.17675	0.17675
    12	0.0596608	-0.17675	0.17675
    13	0.0665513	-0.17675	0.17675
    14	0.0653058	-0.17675	0.17675
    15	0.0390624	-0.17675	0.17675
    16	0.0563392	-0.17675	0.17675
    17	0.0573043	-0.17675	0.17675
    18	0.0690127	-0.17675	0.17675
    19	0.0718039	-0.17675	0.17675
    20	0.0828726	-0.17675	0.17675
    21	0.0395706	-0.17675	0.17675
    22	0.0586289	-0.17675	0.17675
    23	0.0672193	-0.17675	0.17675
    24	0.0807615	-0.17675	0.17675
    25	0.0843838	-0.17675	0.17675
    26	0.0375633	-0.17675	0.17675
    27	0.0854888	-0.17675	0.17675
    28	0.0243307	-0.17675	0.17675
    29	0.0478291	-0.17675	0.17675
    30	0.051378	-0.17675	0.17675
    31	0.0458723	-0.17675	0.17675
    32	0.0573478	-0.17675	0.17675
    33	0.0590721	-0.17675	0.17675
    34	0.077606	-0.17675	0.17675
    35	0.0702293	-0.17675	0.17675
    36	0.0643862	-0.17675	0.17675
    37	0.064768	-0.17675	0.17675
    38	0.066724	-0.17675	0.17675
    39	0.0777343	-0.17675	0.17675
    40	0.0546008	-0.17675	0.17675
    41	0.0347187	-0.17675	0.17675
    42	0.0473619	-0.17675	0.17675
    43	0.0752701	-0.17675	0.17675
    44	0.073132	-0.17675	0.17675
    45	0.079625	-0.17675	0.17675
    46	0.0545223	-0.17675	0.17675
    47	0.0528089	-0.17675	0.17675
    48	0.0728205	-0.17675	0.17675
    49	0.0681701	-0.17675	0.17675
    50	0.0185295	-0.17675	0.17675
    51	0.0779451	-0.17675	0.17675
    52	0.078281	-0.17675	0.17675
    53	0.0550937	-0.17675	0.17675
    54	0.0761841	-0.17675	0.17675
    55	0.0787092	-0.17675	0.17675
    56	0.0840182	-0.17675	0.17675
    57	0.0659738	-0.17675	0.17675
    58	0.0764869	-0.17675	0.17675
    59	0.0525563	-0.17675	0.17675
    60	0.0726785	-0.17675	0.17675
    61	0.0651421	-0.17675	0.17675
    62	0.0479159	-0.17675	0.17675
    63	0.0288092	-0.17675	0.17675
    64	0.0698241	-0.17675	0.17675
    65	0.050923	-0.17675	0.17675
    66	0.0837825	-0.17675	0.17675
    67	0.0441096	-0.17675	0.17675
    68	0.0798251	-0.17675	0.17675
    69	0.0422696	-0.17675	0.17675
    70	0.0222784	-0.17675	0.17675
    71	0.0753493	-0.17675	0.17675
    72	0.062892	-0.17675	0.17675
    73	0.0575256	-0.17675	0.17675
    74	0.0595421	-0.17675	0.17675
    75	0.0640943	-0.17675	0.17675
    76	0.0688341	-0.17675	0.17675
    77	0.0683942	-0.17675	0.17675
    78	0.0529677	-0.17675	0.17675
    79	0.0292463	-0.17675	0.17675
    80	0.0623984	-0.17675	0.17675
    81	0.0838922	-0.17675	0.17675
    82	0.057927	-0.17675	0.17675
    83	0.0785322	-0.17675	0.17675
    84	0.0721882	-0.17675	0.17675
    85	0.0699294	-0.17675	0.17675
    86	0.078746	-0.17675	0.17675
    87	0.0811651	-0.17675	0.17675
    88	0.0756221	-0.17675	0.17675
    89	0.034794	-0.17675	0.17675
    90	0.0810667	-0.17675	0.17675
    91	0.0470688	-0.17675	0.17675
    92	0.0781093	-0.17675	0.17675
    93	0.0734797	-0.17675	0.17675
    94	0.0814349	-0.17675	0.17675
    95	0.0743021	-0.17675	0.17675
    96	0.0637046	-0.17675	0.17675
    97	0.0763202	-0.17675	0.17675
    98	0.0661524	-0.17675	0.17675
    99	0.0528343	-0.17675	0.17675
   100	0.080343	-0.17675	0.17675
   101	0.0690389	-0.17675	0.17675
   102	0.0815445	-0.17675	0.17675
   103	0.0537095	-0.17675	0.17675
   104	0.0822622	-0.17675	0.17675
   105	0.0594246	-0.17675	0.17675
   106	0.0765475	-0.17675	0.17675
   107	0.0504463	-0.17675	0.17675
   108	0.0547695	-0.17675	0.17675
   109	0.0247919	-0.17675	0.17675
   110	0.0849488	-0.17675	0.17675
   111	0.0407704	-0.17675	0.17675
   112	0.0169684	-0.17675	0.17675
   113	0.0686816	-0.17675	0.17675
   114	0.064751	-0.17675	0.17675
   115	0.0662377	-0.17675	0.17675
   116	0.0804328	-0.17675	0.17675
   117	0.0685652	-0.17675	0.17675
   118	0.0697681	-0.17675	0.17675
   119	0.0832487	-0.17675	0.17675
   120	0.0250344	-0.17675	0.17675
   121	0.0699087	-0.17675	0.17675
   122	0.0760483	-0.17675	0.17675
   123	0.0447539	-0.17675	0.17675
   124	0.0465398	-0.17675	0.17675
   125	0.0748804	-0.17675	0.17675
   126	0.0702355	-0.17675	0.17675
   127	0.0843647	-0.17675	0.17675
   128	0.0642992	-0.17675	0.17675
   129	0.0790144	-0.17675	0.17675
   130	0.0765847	-0.17675	0.17675
   131	0.0649835	-0.17675	0.17675
   132	0.0655674	-0.17675	0.17675
   133	0.085273	-0.17675	0.17675
   134	0.0570491	-0.17675	0.17675
   135	0.0433748	-0.17675	0.17675
   136	0.0804951	-0.17675	0.17675
   137	0.0596831	-0.17675	0.17675
   138	0.0603216	-0.17675	0.17675
   139	0.0423237	-0.17675	0.17675
   140	0.0843033	-0.17675	0.17675
   141	0.0374123	-0.17675	0.17675
   142	0.0849405	-0.17675	0.17675
   143	0.0731873	-0.17675	0.17675
   144	0.0534863	-0.17675	0.17675
   145	0.0844502	-0.17675	0.17675
   146	0.0261757	-0.17675	0.17675
   147	0.0788933	-0.17675	0.17675
   148	0.0748008	-0.17675	0.17675
   149	0.0752128	-0.17675	0.17675
   150	0.0507705	-0.17675	0.17675
   151	0.0720662	-0.17675	0.17675
   152	0.0757315	-0.17675	0.17675
   153	0.0561717	-0.17675	0.17675
   154	0.0838153	-0.17675	0.17675
   155	0.0743334	-0.17675	0.17675
   156	0.0679644	-0.17675	0.17675
   157	0.0586639	-0.17675	0.17675
   158	0.0634963	-0.17675	0.17675
   159	0.075615	-0.17675	0.17675
   160	0.0721996	-0.17675	0.17675
   161	0.084285	-0.17675	0.17675
   162	0.0512086	-0.17675	0.17675
   163	0.0602561	-0.17675	0.17675
   164	0.0341688	-0.17675	0.17675
   165	0.0834472	-0.17675	0.17675
   166	0.0764101	-0.17675	0.17675
   167	0.0200828	-0.17675	0.17675
   168	0.0749886	-0.17675	0.17675
   169	0.0401518	-0.17675	0.17675
   170	0.0653498	-0.17675	0.17675
   171	0.059852	-0.17675	0.17675
   172	0.0629934	-0.17675	0.17675
   173	0.0577056	-0.17675	0.17675
   174	0.0647532	-0.17675	0.17675
   175	0.0505592	-0.17675	0.17675
   176	0.0551659	-0.17675	0.17675
   177	0.0580307	-0.17675	0.17675
   178	0.0613225	-0.17675	0.17675
   179	0.0691936	-0.17675	0.17675
   180	0.0594528	-0.17675	0.17675
   181	0.0665323	-0.17675	0.17675
   182	0.06846	-0.17675	0.17675
   183	0.0808169	-0.17675	0.17675
   184	0.0707518	-0.17675	0.17675
   185	0.0424977	-0.17675	0.17675
   186	0.0554558	-0.17675	0.17675
   187	0.057373	-0.17675	0.17675
   188	0.0705085	-0.17675	0.17675
   189	0.0813626	-0.17675	0.17675
   190	0.0523714	-0.17675	0.17675
   191	0.0693576	-0.17675	0.17675
   192	0.0498628	-0.17675	0.17675
   193	0.0831272	-0.17675	0.17675
   194	0.0429623	-0.17675	0.17675
   195	0.0753822	-0.17675	0.17675
   196	0.0655472	-0.17675	0.17675
   197	0.0425115	-0.17675	0.17675
   198	0.0724282	-0.17675	0.17675
   199	0.0574164	-0.17675	0.17675
   200	0.0798229	-0.17675	0.17675
   201	0.0742859	-0.17675	0.17675
   202	0.0603035	-0.17675	0.17675
   203	0.0844169	-0.17675	0.17675
   204	0.0631797	-0.17675	0.17675
   205	0.0714588	-0.17675	0.17675
   206	0.0835887	-0.17675	0.17675
   207	0.0783028	-0.17675	0.17675
   208	0.0701771	-0.17675	0.17675
   209	0.081323	-0.17675	0.17675
   210	0.0710697	-0.17675	0.17675
   211	0.0815298	-0.17675	0.17675
   212	0.0748698	-0.17675	0.17675
   213	0.0796801	-0.17675	0.17675
   214	0.0842862	-0.17675	0.17675
   215	0.0645181	-0.17675	0.17675
   216	0.0504024	-0.17675	0.17675
   217	0.0409367	-0.17675	0.17675
   218	0.0804002	-0.17675	0.17675
   219	0.0532165	-0.17675	0.17675
   220	0.0853718	-0.17675	0.17675
   221	0.0609647	-0.17675	0.17675
   222	0.085267	-0.17675	0.17675
   223	0.0613512	-0.17675	0.17675
   224	0.078486	-0.17675	0.17675
   225	0.0491634	-0.17675	0.17675
   226	0.0282728	-0.17675	0.17675
   227	0.0558921	-0.17675	0.17675
   228	0.054049	-0.17675	0.17675
   229	0.0549934	-0.17675	0.17675
   230	0.0390284	-0.17675	0.17675
   231	0.0545756	-0.17675	0.17675
   232	0.0551539	-0.17675	0.17675
   233	0.0573063	-0.17675	0.17675
   234	0.0646228	-0.17675	0.17675
   235	0.0756997	-0.17675	0.17675
   236	0.034793	-0.17675	0.17675
   237	0.0301378	-0.17675	0.17675
   238	0.0604342	-0.17675	0.17675
   239	0.0553522	-0.17675	0.17675
   240	0.0651075	-0.17675	0.17675
   241	0.0774187	-0.17675	0.17675
   242	0.0822026	-0.17675	0.17675
   243	0.068281	-0.17675	0.17675
   244	0.0513384	-0.17675	0.17675
   245	0.0850929	-0.17675	0.17675
   246	0.0624217	-0.17675	0.17675
   247	0.0766364	-0.17675	0.17675
   248	0.0788888	-0.17675	0.17675
   249	0.0833981	-0.17675	0.17675
   250	0.0814063	-0.17675	0.17675
   251	0.080711	-0.17675	0.17675
   252	0.0688545	-0.17675	0.17675
   253	0.0685618	-0.17675	0.17675
   254	0.0582997	-0.17675	0.17675
   255	0.0651377	-0.17675	0.17675
   256	0.0535056	-0.17675	0.17675
   257	0.0245801	-0.17675	0.17675
   258	0.0635216	-0.17675	0.17675
   259	0.0606914	-0.17675	0.17675
   260	0.0721997	-0.17675	0.17675
   261	0.0621762	-0.17675	0.17675
   262	0.0838009	-0.17675	0.17675
   263	0.0742433	-0.17675	0.17675
   264	0.0777168	-0.17675	0.17675
   265	0.0384587	-0.17675	0.17675
   266	0.0550761	-0.17675	0.17675
   267	0.048627	-0.17675	0.17675
   268	0.0706203	-0.17675	0.17675
   269	0.0698196	-0.17675	0.17675
   270	0.043708	-0.17675	0.17675
   271	0.0851628	-0.17675	0.17675
   272	0.0849027	-0.17675	0.17675
   273	0.066861	-0.17675	0.17675
   274	0.0676537	-0.17675	0.17675
   275	0.077705	-0.17675	0.17675
   276	0.0224679	-0.17675	0.17675
   277	0.0523803	-0.17675	0.17675
   278	0.0701758	-0.17675	0.17675
   279	0.063484	-0.17675	0.17675
   280	0.0746758	-0.17675	0.17675
   281	0.0747004	-0.17675	0.17675
   282	0.0711026	-0.17675	0.17675
   283	0.0542955	-0.17675	0.17675
   284	0.0757399	-0.17675	0.17675
   285	0.0661216	-0.17675	0.17675
   286	0.0751719	-0.17675	0.17675
   287	0.0623599	-0.17675	0.17675
   288	0.0677131	-0.17675	0.17675
   289	0.0644897	-0.17675	0.17675
   290	0.0764588	-0.17675	0.17675
   291	0.0535146	-0.17675	0.17675
   292	0.0543586	-0.17675	0.17675
   293	0.0487424	-0.17675	0.17675
   294	0.0707108	-0.17675	0.17675
   295	0.0575427	-0.17675	0.17675
   296	0.0728078	-0.17675	0.17675
   297	0.0804648	-0.17675	0.17675
   298	0.0685922	-0.17675	0.17675
   299	0.0838159	-0.17675	0.17675
   300	0.0468531	-0.17675	0.17675
   301	0.0700027	-0.17675	0.17675
   302	0.0375903	-0.17675	0.17675
   303	0.0591037	-0.17675	0.17675
   304	0.0554818	-0.17675	0.17675
   305	0.0393002	-0.17675	0.17675
   306	0.0460472	-0.17675	0.17675
   307	0.0581706	-0.17675	0.17675
   308	0.059943	-0.17675	0.17675
   309	0.0756203	-0.17675	0.17675
   310	0.0639051	-0.17675	0.17675
   311	0.0593299	-0.17675	0.17675
   312	0.0732165	-0.17675	0.17675
   313	0.079688	-0.17675	0.17675
   314	0.0855114	-0.17675	0.17675
   315	0.0685715	-0.17675	0.17675
   316	0.0693069	-0.17675	0.17675
   317	0.0383284	-0.17675	0.17675
   318	0.0702852	-0.17675	0.17675
   319	0.0159844	-0.17675	0.17675
   320	0.0479518	-0.17675	0.17675
   321	0.0426654	-0.17675	0.17675
   322	0.0832191	-0.17675	0.17675
   323	0.0671586	-0.17675	0.17675
   324	0.062562	-0.17675	0.17675
   325	0.073938	-0.17675	0.17675
   326	0.0517737	-0.17675	0.17675
   327	0.0848277	-0.17675	0.17675
   328	0.0845477	-0.17675	0.17675
   329	0.0826144	-0.17675	0.17675
   330	0.0829749	-0.17675	0.17675
   331	0.0634441	-0.17675	0.17675
   332	0.0582149	-0.17675	0.17675
   333	0.0771825	-0.17675	0.17675
   334	0.0798482	-0.17675	0.17675
   335	0.0768483	-0.17675	0.17675
   336	0.0763844	-0.17675	0.17675
   337	0.0497343	-0.17675	0.17675
   338	0.0554607	-0.17675	0.17675
   339	0.0382391	-0.17675	0.17675
   340	0.0354805	-0.17675	0.17675
   341	0.0824533	-0.17675	0.17675
   342	0.0528659	-0.17675	0.17675
   343	0.0677457	-0.17675	0.17675
   344	0.0578246	-0.17675	0.17675
   345	0.0499108	-0.17675	0.17675
   346	0.0842282	-0.17675	0.17675
   347	0.0659371	-0.17675	0.17675
   348	0.0777893	-0.17675	0.17675
   349	0.0163413	-0.17675	0.17675
   350	0.0776425	-0.17675	0.17675
   351	0.0808633	-0.17675	0.17675
   352	0.0616039	-0.17675	0.17675
   353	0.0770576	-0.17675	0.17675
   354	0.0727157	-0.17675	0.17675
   355	0.0774118	-0.17675	0.17675
   356	0.0655203	-0.17675	0.17675
   357	0.0841227	-0.17675	0.17675
   358	0.0847256	-0.17675	0.17675
   359	0.0791563	-0.17675	0.17675
   360	0.0697075	-0.17675	0.17675
   361	0.0266256	-0.17675	0.17675
   362	0.0520713	-0.17675	0.17675
   363	0.0534778	-0.17675	0.17675
   364	0.0605325	-0.17675	0.17675
   365	0.0355591	-0.17675	0.17675
   366	0.043355	-0.17675	0.17675
   367	0.0781466	-0.17675	0.17675
   368	0.0822149	-0.17675	0.17675
   369	0.084339	-0.17675	0.17675
   370	0.0580832	-0.17675	0.17675
   371	0.0652789	-0.17675	0.17675
   372	0.0680239	-0.17675	0.17675
   373	0.0329731	-0.17675	0.17675
   374	0.0619565	-0.17675	0.17675
   375	0.0824619	-0.17675	0.17675
   376	0.0605426	-0.17675	0.17675
   377	0.0828872	-0.17675	0.17675
   378	0.0694986	-0.17675	0.17675
   379	0.0147672	-0.17675	0.17675
   380	0.0790518	-0.17675	0.17675
   381	0.0733939	-0.17675	0.17675
   382	0.0341232	-0.17675	0.17675
   383	0.0448134	-0.17675	0.17675
   384	0.0830868	-0.17675	0.17675
   385	0.0838123	-0.17675	0.17675
   386	0.0574416	-0.17675	0.17675
   387	0.0839732	-0.17675	0.17675
   388	0.0777059	-0.17675	0.17675
   389	0.0516183	-0.17675	0.17675
   390	0.0724236	-0.17675	0.17675
   391	0.0297164	-0.17675	0.17675
   392	0.0834371	-0.17675	0.17675
   393	0.0576808	-0.17675	0.17675
   394	0.0808667	-0.17675	0.17675
   395	0.075066	-0.17675	0.17675
   396	0.0520458	-0.17675	0.17675
   397	0.0725473	-0.17675	0.17675
   398	0.0659238	-0.17675	0.17675
   399	0.0633273	-0.17675	0.17675
   400	0.0388904	-0.17675	0.17675

Measurement: snm_min
  step	MIN(0.707*v(v1)-0.707*v(v2))	FROM	TO
     1	-0.0177351	-0.17675	0.17675
     2	-0.066256	-0.17675	0.17675
     3	-0.0418666	-0.17675	0.17675
     4	-0.0679341	-0.17675	0.17675
     5	-0.083854	-0.17675	0.17675
     6	-0.0827886	-0.17675	0.17675
     7	-0.0769833	-0.17675	0.17675
     8	-0.0335543	-0.17675	0.17675
     9	-0.0478606	-0.17675	0.17675
    10	-0.0567698	-0.17675	0.17675
    11	-0.018825	-0.17675	0.17675
    12	-0.0596407	-0.17675	0.17675
    13	-0.0664075	-0.17675	0.17675
    14	-0.0651141	-0.17675	0.17675
    15	-0.0390765	-0.17675	0.17675
    16	-0.0564164	-0.17675	0.17675
    17	-0.057376	-0.17675	0.17675
    18	-0.0689948	-0.17675	0.17675
    19	-0.0719471	-0.17675	0.17675
    20	-0.0829167	-0.17675	0.17675
    21	-0.0396047	-0.17675	0.17675
    22	-0.0586398	-0.17675	0.17675
    23	-0.0671053	-0.17675	0.17675
    24	-0.0808839	-0.17675	0.17675
    25	-0.0843467	-0.17675	0.17675
    26	-0.0374985	-0.17675	0.17675
    27	-0.0854265	-0.17675	0.17675
    28	-0.0242745	-0.17675	0.17675
    29	-0.0477414	-0.17675	0.17675
    30	-0.0513389	-0.17675	0.17675
    31	-0.0458492	-0.17675	0.17675
    32	-0.0573967	-0.17675	0.17675
    33	-0.0590919	-0.17675	0.17675
    34	-0.0778232	-0.17675	0.17675
    35	-0.0702834	-0.17675	0.17675
    36	-0.0642309	-0.17675	0.17675
    37	-0.0645739	-0.17675	0.17675
    38	-0.066582	-0.17675	0.17675
    39	-0.0779487	-0.17675	0.17675
    40	-0.0547133	-0.17675	0.17675
    41	-0.0346464	-0.17675	0.17675
    42	-0.0473139	-0.17675	0.17675
    43	-0.0755424	-0.17675	0.17675
    44	-0.073381	-0.17675	0.17675
    45	-0.079785	-0.17675	0.17675
    46	-0.0546452	-0.17675	0.17675
    47	-0.0529324	-0.17675	0.17675
    48	-0.0730159	-0.17675	0.17675
    49	-0.0680911	-0.17675	0.17675
    50	-0.0185712	-0.17675	0.17675
    51	-0.0781558	-0.17675	0.17675
    52	-0.0784872	-0.17675	0.17675
    53	-0.0551938	-0.17675	0.17675
    54	-0.076442	-0.17675	0.17675
    55	-0.0788998	-0.17675	0.17675
    56	-0.0839882	-0.17675	0.17675
    57	-0.065778	-0.17675	0.17675
    58	-0.0767352	-0.17675	0.17675
    59	-0.0526845	-0.17675	0.17675
    60	-0.0728948	-0.17675	0.17675
    61	-0.0649545	-0.17675	0.17675
    62	-0.0478379	-0.17675	0.17675
    63	-0.0288904	-0.17675	0.17675
    64	-0.0698556	-0.17675	0.17675
    65	-0.0509062	-0.17675	0.17675
    66	-0.0837962	-0.17675	0.17675
    67	-0.0441471	-0.17675	0.17675
    68	-0.0799789	-0.17675	0.17675
    69	-0.0423481	-0.17675	0.17675
    70	-0.0222112	-0.17675	0.17675
    71	-0.0756224	-0.17675	0.17675
    72	-0.0627847	-0.17675	0.17675
    73	-0.0575859	-0.17675	0.17675
    74	-0.059555	-0.17675	0.17675
    75	-0.063914	-0.17675	0.17675
    76	-0.0687847	-0.17675	0.17675
    77	-0.0683321	-0.17675	0.17675
    78	-0.0531021	-0.17675	0.17675
    79	-0.0293066	-0.17675	0.17675
    80	-0.062291	-0.17675	0.17675
    81	-0.0838961	-0.17675	0.17675
    82	-0.0579824	-0.17675	0.17675
    83	-0.078725	-0.17675	0.17675
    84	-0.0723569	-0.17675	0.17675
    85	-0.0699626	-0.17675	0.17675
    86	-0.0789334	-0.17675	0.17675
    87	-0.0812794	-0.17675	0.17675
    88	-0.0758872	-0.17675	0.17675
    89	-0.0347061	-0.17675	0.17675
    90	-0.0811827	-0.17675	0.17675
    91	-0.0469884	-0.17675	0.17675
    92	-0.0783131	-0.17675	0.17675
    93	-0.0737272	-0.17675	0.17675
    94	-0.0815348	-0.17675	0.17675
    95	-0.0745982	-0.17675	0.17675
    96	-0.0635496	-0.17675	0.17675
    97	-0.0765691	-0.17675	0.17675
    98	-0.0659864	-0.17675	0.17675
    99	-0.052898	-0.17675	0.17675
   100	-0.0804797	-0.17675	0.17675
   101	-0.0690243	-0.17675	0.17675
   102	-0.0816412	-0.17675	0.17675
   103	-0.0538259	-0.17675	0.17675
   104	-0.0823306	-0.17675	0.17675
   105	-0.0594286	-0.17675	0.17675
   106	-0.0767963	-0.17675	0.17675
   107	-0.0503949	-0.17675	0.17675
   108	-0.0548797	-0.17675	0.17675
   109	-0.0247008	-0.17675	0.17675
   110	-0.0849011	-0.17675	0.17675
   111	-0.0408579	-0.17675	0.17675
   112	-0.0169671	-0.17675	0.17675
   113	-0.0686377	-0.17675	0.17675
   114	-0.0645776	-0.17675	0.17675
   115	-0.0660674	-0.17675	0.17675
   116	-0.0805232	-0.17675	0.17675
   117	-0.0684932	-0.17675	0.17675
   118	-0.0697961	-0.17675	0.17675
   119	-0.0832323	-0.17675	0.17675
   120	-0.0249582	-0.17675	0.17675
   121	-0.0699371	-0.17675	0.17675
   122	-0.0763049	-0.17675	0.17675
   123	-0.0447512	-0.17675	0.17675
   124	-0.0465122	-0.17675	0.17675
   125	-0.0751605	-0.17675	0.17675
   126	-0.0702549	-0.17675	0.17675
   127	-0.0843476	-0.17675	0.17675
   128	-0.0641312	-0.17675	0.17675
   129	-0.0791987	-0.17675	0.17675
   130	-0.0768271	-0.17675	0.17675
   131	-0.0647719	-0.17675	0.17675
   132	-0.0653681	-0.17675	0.17675
   133	-0.0852112	-0.17675	0.17675
   134	-0.0571209	-0.17675	0.17675
   135	-0.0434235	-0.17675	0.17675
   136	-0.0806326	-0.17675	0.17675
   137	-0.0596535	-0.17675	0.17675
   138	-0.0603107	-0.17675	0.17675
   139	-0.0423781	-0.17675	0.17675
   140	-0.0842867	-0.17675	0.17675
   141	-0.037339	-0.17675	0.17675
   142	-0.0849015	-0.17675	0.17675
   143	-0.0734041	-0.17675	0.17675
   144	-0.0535771	-0.17675	0.17675
   145	-0.0844216	-0.17675	0.17675
   146	-0.0261797	-0.17675	0.17675
   147	-0.0790751	-0.17675	0.17675
   148	-0.075084	-0.17675	0.17675
   149	-0.0754858	-0.17675	0.17675
   150	-0.0507146	-0.17675	0.17675
   151	-0.072211	-0.17675	0.17675
   152	-0.075998	-0.17675	0.17675
   153	-0.0562624	-0.17675	0.17675
   154	-0.0838241	-0.17675	0.17675
   155	-0.0746248	-0.17675	0.17675
   156	-0.0678825	-0.17675	0.17675
   157	-0.0586794	-0.17675	0.17675
   158	-0.0633566	-0.17675	0.17675
   159	-0.0758833	-0.17675	0.17675
   160	-0.072369	-0.17675	0.17675
   161	-0.0842713	-0.17675	0.17675
   162	-0.0512111	-0.17675	0.17675
   163	-0.0602447	-0.17675	0.17675
   164	-0.0341125	-0.17675	0.17675
   165	-0.0834777	-0.17675	0.17675
   166	-0.0766576	-0.17675	0.17675
   167	-0.0201054	-0.17675	0.17675
   168	-0.0752675	-0.17675	0.17675
   169	-0.0401518	-0.17675	0.17675
   170	-0.0651494	-0.17675	0.17675
   171	-0.0598332	-0.17675	0.17675
   172	-0.0629053	-0.17675	0.17675
   173	-0.0577458	-0.17675	0.17675
   174	-0.0645484	-0.17675	0.17675
   175	-0.0505582	-0.17675	0.17675
   176	-0.0552572	-0.17675	0.17675
   177	-0.058054	-0.17675	0.17675
   178	-0.0612719	-0.17675	0.17675
   179	-0.0691563	-0.17675	0.17675
   180	-0.0594375	-0.17675	0.17675
   181	-0.0663654	-0.17675	0.17675
   182	-0.0684114	-0.17675	0.17675
   183	-0.0809381	-0.17675	0.17675
   184	-0.0708225	-0.17675	0.17675
   185	-0.0425632	-0.17675	0.17675
   186	-0.0555404	-0.17675	0.17675
   187	-0.0574029	-0.17675	0.17675
   188	-0.0705619	-0.17675	0.17675
   189	-0.0813615	-0.17675	0.17675
   190	-0.0524424	-0.17675	0.17675
   191	-0.0693315	-0.17675	0.17675
   192	-0.0497821	-0.17675	0.17675
   193	-0.0831688	-0.17675	0.17675
   194	-0.0430128	-0.17675	0.17675
   195	-0.0756513	-0.17675	0.17675
   196	-0.065345	-0.17675	0.17675
   197	-0.0425799	-0.17675	0.17675
   198	-0.0726229	-0.17675	0.17675
   199	-0.0574699	-0.17675	0.17675
   200	-0.0799778	-0.17675	0.17675
   201	-0.074581	-0.17675	0.17675
   202	-0.0602846	-0.17675	0.17675
   203	-0.0844043	-0.17675	0.17675
   204	-0.0630416	-0.17675	0.17675
   205	-0.0715664	-0.17675	0.17675
   206	-0.0835871	-0.17675	0.17675
   207	-0.0785039	-0.17675	0.17675
   208	-0.0702126	-0.17675	0.17675
   209	-0.0814327	-0.17675	0.17675
   210	-0.0711649	-0.17675	0.17675
   211	-0.0816275	-0.17675	0.17675
   212	-0.0751495	-0.17675	0.17675
   213	-0.0798399	-0.17675	0.17675
   214	-0.0842658	-0.17675	0.17675
   215	-0.0643412	-0.17675	0.17675
   216	-0.0503083	-0.17675	0.17675
   217	-0.0410402	-0.17675	0.17675
   218	-0.080535	-0.17675	0.17675
   219	-0.0533017	-0.17675	0.17675
   220	-0.0853135	-0.17675	0.17675
   221	-0.060938	-0.17675	0.17675
   222	-0.0852114	-0.17675	0.17675
   223	-0.0612618	-0.17675	0.17675
   224	-0.0786811	-0.17675	0.17675
   225	-0.049036	-0.17675	0.17675
   226	-0.0283475	-0.17675	0.17675
   227	-0.0559632	-0.17675	0.17675
   228	-0.0541744	-0.17675	0.17675
   229	-0.0550959	-0.17675	0.17675
   230	-0.0390942	-0.17675	0.17675
   231	-0.0546966	-0.17675	0.17675
   232	-0.0552617	-0.17675	0.17675
   233	-0.0573708	-0.17675	0.17675
   234	-0.0644324	-0.17675	0.17675
   235	-0.0759629	-0.17675	0.17675
   236	-0.034793	-0.17675	0.17675
   237	-0.0301808	-0.17675	0.17675
   238	-0.0604077	-0.17675	0.17675
   239	-0.0554674	-0.17675	0.17675
   240	-0.0649118	-0.17675	0.17675
   241	-0.0776407	-0.17675	0.17675
   242	-0.0822782	-0.17675	0.17675
   243	-0.0681989	-0.17675	0.17675
   244	-0.0513303	-0.17675	0.17675
   245	-0.0850361	-0.17675	0.17675
   246	-0.0623089	-0.17675	0.17675
   247	-0.0768777	-0.17675	0.17675
   248	-0.0790714	-0.17675	0.17675
   249	-0.0833824	-0.17675	0.17675
   250	-0.0815132	-0.17675	0.17675
   251	-0.0807827	-0.17675	0.17675
   252	-0.0688187	-0.17675	0.17675
   253	-0.0685161	-0.17675	0.17675
   254	-0.0583094	-0.17675	0.17675
   255	-0.0649455	-0.17675	0.17675
   256	-0.0536067	-0.17675	0.17675
   257	-0.0245273	-0.17675	0.17675
   258	-0.0633682	-0.17675	0.17675
   259	-0.0606652	-0.17675	0.17675
   260	-0.0723602	-0.17675	0.17675
   261	-0.0620826	-0.17675	0.17675
   262	-0.0838196	-0.17675	0.17675
   263	-0.0745407	-0.17675	0.17675
   264	-0.0779324	-0.17675	0.17675
   265	-0.0385167	-0.17675	0.17675
   266	-0.0551801	-0.17675	0.17675
   267	-0.0485134	-0.17675	0.17675
   268	-0.0707001	-0.17675	0.17675
   269	-0.0698455	-0.17675	0.17675
   270	-0.0437227	-0.17675	0.17675
   271	-0.0851121	-0.17675	0.17675
   272	-0.084854	-0.17675	0.17675
   273	-0.0666895	-0.17675	0.17675
   274	-0.0675649	-0.17675	0.17675
   275	-0.0779201	-0.17675	0.17675
   276	-0.0224065	-0.17675	0.17675
   277	-0.0524237	-0.17675	0.17675
   278	-0.0702283	-0.17675	0.17675
   279	-0.0633319	-0.17675	0.17675
   280	-0.0749625	-0.17675	0.17675
   281	-0.0749847	-0.17675	0.17675
   282	-0.0711921	-0.17675	0.17675
   283	-0.0544202	-0.17675	0.17675
   284	-0.0760025	-0.17675	0.17675
   285	-0.0659558	-0.17675	0.17675
   286	-0.0754457	-0.17675	0.17675
   287	-0.0622703	-0.17675	0.17675
   288	-0.0676118	-0.17675	0.17675
   289	-0.0643183	-0.17675	0.17675
   290	-0.0767049	-0.17675	0.17675
   291	-0.0536325	-0.17675	0.17675
   292	-0.0544622	-0.17675	0.17675
   293	-0.0486237	-0.17675	0.17675
   294	-0.070784	-0.17675	0.17675
   295	-0.0575634	-0.17675	0.17675
   296	-0.0730265	-0.17675	0.17675
   297	-0.0805732	-0.17675	0.17675
   298	-0.06855	-0.17675	0.17675
   299	-0.0837783	-0.17675	0.17675
   300	-0.046782	-0.17675	0.17675
   301	-0.0700328	-0.17675	0.17675
   302	-0.0375983	-0.17675	0.17675
   303	-0.0591088	-0.17675	0.17675
   304	-0.055589	-0.17675	0.17675
   305	-0.0394019	-0.17675	0.17675
   306	-0.0460186	-0.17675	0.17675
   307	-0.058201	-0.17675	0.17675
   308	-0.0599374	-0.17675	0.17675
   309	-0.0758853	-0.17675	0.17675
   310	-0.0637554	-0.17675	0.17675
   311	-0.0593137	-0.17675	0.17675
   312	-0.0734717	-0.17675	0.17675
   313	-0.0798485	-0.17675	0.17675
   314	-0.0854428	-0.17675	0.17675
   315	-0.06851	-0.17675	0.17675
   316	-0.0692968	-0.17675	0.17675
   317	-0.0383353	-0.17675	0.17675
   318	-0.0703395	-0.17675	0.17675
   319	-0.0159833	-0.17675	0.17675
   320	-0.0478531	-0.17675	0.17675
   321	-0.0427388	-0.17675	0.17675
   322	-0.0832395	-0.17675	0.17675
   323	-0.0670429	-0.17675	0.17675
   324	-0.0624659	-0.17675	0.17675
   325	-0.0742189	-0.17675	0.17675
   326	-0.0517819	-0.17675	0.17675
   327	-0.0847786	-0.17675	0.17675
   328	-0.0845158	-0.17675	0.17675
   329	-0.0826762	-0.17675	0.17675
   330	-0.0830214	-0.17675	0.17675
   331	-0.0633041	-0.17675	0.17675
   332	-0.0582237	-0.17675	0.17675
   333	-0.0774149	-0.17675	0.17675
   334	-0.0800013	-0.17675	0.17675
   335	-0.0770885	-0.17675	0.17675
   336	-0.0766316	-0.17675	0.17675
   337	-0.0496081	-0.17675	0.17675
   338	-0.0555482	-0.17675	0.17675
   339	-0.0382845	-0.17675	0.17675
   340	-0.0354021	-0.17675	0.17675
   341	-0.0825211	-0.17675	0.17675
   342	-0.0529188	-0.17675	0.17675
   343	-0.0676488	-0.17675	0.17675
   344	-0.0578741	-0.17675	0.17675
   345	-0.0498425	-0.17675	0.17675
   346	-0.0841983	-0.17675	0.17675
   347	-0.0657401	-0.17675	0.17675
   348	-0.0779762	-0.17675	0.17675
   349	-0.0163396	-0.17675	0.17675
   350	-0.077863	-0.17675	0.17675
   351	-0.0809824	-0.17675	0.17675
   352	-0.0615206	-0.17675	0.17675
   353	-0.0772889	-0.17675	0.17675
   354	-0.0729286	-0.17675	0.17675
   355	-0.0776373	-0.17675	0.17675
   356	-0.0653262	-0.17675	0.17675
   357	-0.0840959	-0.17675	0.17675
   358	-0.0846797	-0.17675	0.17675
   359	-0.0793324	-0.17675	0.17675
   360	-0.0697303	-0.17675	0.17675
   361	-0.0267029	-0.17675	0.17675
   362	-0.0521188	-0.17675	0.17675
   363	-0.0535735	-0.17675	0.17675
   364	-0.0605152	-0.17675	0.17675
   365	-0.0354682	-0.17675	0.17675
   366	-0.043394	-0.17675	0.17675
   367	-0.0783496	-0.17675	0.17675
   368	-0.0822835	-0.17675	0.17675
   369	-0.0843173	-0.17675	0.17675
   370	-0.0581143	-0.17675	0.17675
   371	-0.0650752	-0.17675	0.17675
   372	-0.0679545	-0.17675	0.17675
   373	-0.0329392	-0.17675	0.17675
   374	-0.0618952	-0.17675	0.17675
   375	-0.0824686	-0.17675	0.17675
   376	-0.0605009	-0.17675	0.17675
   377	-0.0828954	-0.17675	0.17675
   378	-0.0694888	-0.17675	0.17675
   379	-0.0147658	-0.17675	0.17675
   380	-0.0792292	-0.17675	0.17675
   381	-0.0736299	-0.17675	0.17675
   382	-0.0340536	-0.17675	0.17675
   383	-0.0447898	-0.17675	0.17675
   384	-0.0831025	-0.17675	0.17675
   385	-0.0838125	-0.17675	0.17675
   386	-0.0574912	-0.17675	0.17675
   387	-0.0839716	-0.17675	0.17675
   388	-0.0779266	-0.17675	0.17675
   389	-0.0516324	-0.17675	0.17675
   390	-0.0725972	-0.17675	0.17675
   391	-0.0297185	-0.17675	0.17675
   392	-0.0834282	-0.17675	0.17675
   393	-0.0577148	-0.17675	0.17675
   394	-0.0809844	-0.17675	0.17675
   395	-0.0753437	-0.17675	0.17675
   396	-0.0521299	-0.17675	0.17675
   397	-0.0727117	-0.17675	0.17675
   398	-0.0657447	-0.17675	0.17675
   399	-0.0631954	-0.17675	0.17675
   400	-0.0389288	-0.17675	0.17675


Date: Mon Dec 11 00:05:45 2023
Total elapsed time: 11.723 seconds.

tnom = 27
temp = 27
method = trap
totiter = 100
traniter = 0
tranpoints = 0
accept = 0
rejected = 0
matrix size = 33
fillins = 28
solver = Normal
Avg thread counts: 8.0/0.0/8.0/8.0
Matrix Compiler1: 2.14 KB object code size  0.7/0.4/[0.4]
Matrix Compiler2: 2.78 KB object code size  0.3/0.5/[0.2]

