Circuit: * D:\Disco D\universita\magistrale\progettazione-low-power\progetti\progetto-2\ltspice\models\snm-seevinck\curva_a_farfalla_hold.asc

WARNING: Node NC_01 is floating.
WARNING: Node NC_02 is floating.
WARNING: Node NC_03 is floating.

WARNING: Less than two connections to node nc_01.  This node is used by vsweep.
WARNING: Less than two connections to node nc_02.  This node is used by e2.
WARNING: Less than two connections to node nc_03.  This node is used by e8.
Warning: Pd = 0 is less than W.
Warning: Ps = 0 is less than W.
Warning: Pd = 0 is less than W.
Warning: Ps = 0 is less than W.
.step 1=1
.step 1=40.9
.step 1=80.8
.step 1=120.7
.step 1=160.6
.step 1=200.5
.step 1=240.4
.step 1=280.3
.step 1=320.2
.step 1=360.1
.step 1=400

Date: Sat Nov 25 10:31:35 2023
Total elapsed time: 0.605 seconds.

tnom = 27
temp = 27
method = trap
totiter = 292
traniter = 0
tranpoints = 0
accept = 0
rejected = 0
matrix size = 27
fillins = 22
solver = Normal
Avg thread counts: 7.0/0.0/8.0/7.0
Matrix Compiler1: 1.62 KB object code size  0.5/0.3/[0.3]
Matrix Compiler2: 2.00 KB object code size  0.1/0.4/[0.1]

