Circuit: * D:\Disco D\universita\magistrale\progettazione-low-power\progetti\progetto-2\ltspice\models\gaussian-vth\hold\gaussian_vth_hold.asc

WARNING: Node NC_01 is floating.
WARNING: Node NC_02 is floating.
WARNING: Node NC_03 is floating.
WARNING: Node NC_04 is floating.
WARNING: Node NC_05 is floating.

WARNING: Less than two connections to node nc_01.  This node is used by vsweep.
WARNING: Less than two connections to node nc_02.  This node is used by e2.
WARNING: Less than two connections to node nc_03.  This node is used by e8.
WARNING: Less than two connections to node nc_04.  This node is used by m5.
WARNING: Less than two connections to node nc_05.  This node is used by m6.
Warning: Pd = 0 is less than W.
Warning: Ps = 0 is less than W.
Warning: Pd = 0 is less than W.
Warning: Ps = 0 is less than W.
Warning: Pd = 0 is less than W.
Warning: Ps = 0 is less than W.
.step run=1
.step run=2
.step run=3
.step run=4
.step run=5
.step run=6
.step run=7
.step run=8
.step run=9
.step run=10
.step run=11
.step run=12
.step run=13
.step run=14
.step run=15
.step run=16
.step run=17
.step run=18
.step run=19
.step run=20
.step run=21
.step run=22
.step run=23
.step run=24
.step run=25
.step run=26
.step run=27
.step run=28
.step run=29
.step run=30
.step run=31
.step run=32
.step run=33
.step run=34
.step run=35
.step run=36
.step run=37
.step run=38
.step run=39
.step run=40
.step run=41
.step run=42
.step run=43
.step run=44
.step run=45
.step run=46
.step run=47
.step run=48
.step run=49
.step run=50
.step run=51
.step run=52
.step run=53
.step run=54
.step run=55
.step run=56
.step run=57
.step run=58
.step run=59
.step run=60
.step run=61
.step run=62
.step run=63
.step run=64
.step run=65
.step run=66
.step run=67
.step run=68
.step run=69
.step run=70
.step run=71
.step run=72
.step run=73
.step run=74
.step run=75
.step run=76
.step run=77
.step run=78
.step run=79
.step run=80
.step run=81
.step run=82
.step run=83
.step run=84
.step run=85
.step run=86
.step run=87
.step run=88
.step run=89
.step run=90
.step run=91
.step run=92
.step run=93
.step run=94
.step run=95
.step run=96
.step run=97
.step run=98
.step run=99
.step run=100
.step run=101
.step run=102
.step run=103
.step run=104
.step run=105
.step run=106
.step run=107
.step run=108
.step run=109
.step run=110
.step run=111
.step run=112
.step run=113
.step run=114
.step run=115
.step run=116
.step run=117
.step run=118
.step run=119
.step run=120
.step run=121
.step run=122
.step run=123
.step run=124
.step run=125
.step run=126
.step run=127
.step run=128
.step run=129
.step run=130
.step run=131
.step run=132
.step run=133
.step run=134
.step run=135
.step run=136
.step run=137
.step run=138
.step run=139
.step run=140
.step run=141
.step run=142
.step run=143
.step run=144
.step run=145
.step run=146
.step run=147
.step run=148
.step run=149
.step run=150
.step run=151
.step run=152
.step run=153
.step run=154
.step run=155
.step run=156
.step run=157
.step run=158
.step run=159
.step run=160
.step run=161
.step run=162
.step run=163
.step run=164
.step run=165
.step run=166
.step run=167
.step run=168
.step run=169
.step run=170
.step run=171
.step run=172
.step run=173
.step run=174
.step run=175
.step run=176
.step run=177
.step run=178
.step run=179
.step run=180
.step run=181
.step run=182
.step run=183
.step run=184
.step run=185
.step run=186
.step run=187
.step run=188
.step run=189
.step run=190
.step run=191
.step run=192
.step run=193
.step run=194
.step run=195
.step run=196
.step run=197
.step run=198
.step run=199
.step run=200
.step run=201
.step run=202
.step run=203
.step run=204
.step run=205
.step run=206
.step run=207
.step run=208
.step run=209
.step run=210
.step run=211
.step run=212
.step run=213
.step run=214
.step run=215
.step run=216
.step run=217
.step run=218
.step run=219
.step run=220
.step run=221
.step run=222
.step run=223
.step run=224
.step run=225
.step run=226
.step run=227
.step run=228
.step run=229
.step run=230
.step run=231
.step run=232
.step run=233
.step run=234
.step run=235
.step run=236
.step run=237
.step run=238
.step run=239
.step run=240
.step run=241
.step run=242
.step run=243
.step run=244
.step run=245
.step run=246
.step run=247
.step run=248
.step run=249
.step run=250
.step run=251
.step run=252
.step run=253
.step run=254
.step run=255
.step run=256
.step run=257
.step run=258
.step run=259
.step run=260
.step run=261
.step run=262
.step run=263
.step run=264
.step run=265
.step run=266
.step run=267
.step run=268
.step run=269
.step run=270
.step run=271
.step run=272
.step run=273
.step run=274
.step run=275
.step run=276
.step run=277
.step run=278
.step run=279
.step run=280
.step run=281
.step run=282
.step run=283
.step run=284
.step run=285
.step run=286
.step run=287
.step run=288
.step run=289
.step run=290
.step run=291
.step run=292
.step run=293
.step run=294
.step run=295
.step run=296
.step run=297
.step run=298
.step run=299
.step run=300
.step run=301
.step run=302
.step run=303
.step run=304
.step run=305
.step run=306
.step run=307
.step run=308
.step run=309
.step run=310
.step run=311
.step run=312
.step run=313
.step run=314
.step run=315
.step run=316
.step run=317
.step run=318
.step run=319
.step run=320
.step run=321
.step run=322
.step run=323
.step run=324
.step run=325
.step run=326
.step run=327
.step run=328
.step run=329
.step run=330
.step run=331
.step run=332
.step run=333
.step run=334
.step run=335
.step run=336
.step run=337
.step run=338
.step run=339
.step run=340
.step run=341
.step run=342
.step run=343
.step run=344
.step run=345
.step run=346
.step run=347
.step run=348
.step run=349
.step run=350
.step run=351
.step run=352
.step run=353
.step run=354
.step run=355
.step run=356
.step run=357
.step run=358
.step run=359
.step run=360
.step run=361
.step run=362
.step run=363
.step run=364
.step run=365
.step run=366
.step run=367
.step run=368
.step run=369
.step run=370
.step run=371
.step run=372
.step run=373
.step run=374
.step run=375
.step run=376
.step run=377
.step run=378
.step run=379
.step run=380
.step run=381
.step run=382
.step run=383
.step run=384
.step run=385
.step run=386
.step run=387
.step run=388
.step run=389
.step run=390
.step run=391
.step run=392
.step run=393
.step run=394
.step run=395
.step run=396
.step run=397
.step run=398
.step run=399
.step run=400


Measurement: snm_max
  step	MAX(0.707*v(v1)-0.707*v(v2))	FROM	TO
     1	0.0377165	-0.2121	0.2121
     2	0.087675	-0.2121	0.2121
     3	0.0628978	-0.2121	0.2121
     4	0.0889483	-0.2121	0.2121
     5	0.105861	-0.2121	0.2121
     6	0.104033	-0.2121	0.2121
     7	0.0980819	-0.2121	0.2121
     8	0.053567	-0.2121	0.2121
     9	0.0684773	-0.2121	0.2121
    10	0.0777288	-0.2121	0.2121
    11	0.0384889	-0.2121	0.2121
    12	0.0803622	-0.2121	0.2121
    13	0.0869769	-0.2121	0.2121
    14	0.086488	-0.2121	0.2121
    15	0.0599874	-0.2121	0.2121
    16	0.0773133	-0.2121	0.2121
    17	0.0787523	-0.2121	0.2121
    18	0.0898743	-0.2121	0.2121
    19	0.0931825	-0.2121	0.2121
    20	0.104161	-0.2121	0.2121
    21	0.0606162	-0.2121	0.2121
    22	0.0793905	-0.2121	0.2121
    23	0.0879831	-0.2121	0.2121
    24	0.101835	-0.2121	0.2121
    25	0.105657	-0.2121	0.2121
    26	0.0584234	-0.2121	0.2121
    27	0.107382	-0.2121	0.2121
    28	0.0440064	-0.2121	0.2121
    29	0.0686314	-0.2121	0.2121
    30	0.0726694	-0.2121	0.2121
    31	0.066683	-0.2121	0.2121
    32	0.0782236	-0.2121	0.2121
    33	0.0803477	-0.2121	0.2121
    34	0.0990069	-0.2121	0.2121
    35	0.0907279	-0.2121	0.2121
    36	0.0855403	-0.2121	0.2121
    37	0.0853829	-0.2121	0.2121
    38	0.0875724	-0.2121	0.2121
    39	0.0988604	-0.2121	0.2121
    40	0.0754774	-0.2121	0.2121
    41	0.0550968	-0.2121	0.2121
    42	0.0686651	-0.2121	0.2121
    43	0.0968775	-0.2121	0.2121
    44	0.0940697	-0.2121	0.2121
    45	0.10091	-0.2121	0.2121
    46	0.0756345	-0.2121	0.2121
    47	0.0734253	-0.2121	0.2121
    48	0.0922901	-0.2121	0.2121
    49	0.0893538	-0.2121	0.2121
    50	0.037986	-0.2121	0.2121
    51	0.0996285	-0.2121	0.2121
    52	0.100224	-0.2121	0.2121
    53	0.0759252	-0.2121	0.2121
    54	0.0981584	-0.2121	0.2121
    55	0.100438	-0.2121	0.2121
    56	0.105443	-0.2121	0.2121
    57	0.0871577	-0.2121	0.2121
    58	0.0983003	-0.2121	0.2121
    59	0.0729669	-0.2121	0.2121
    60	0.0936746	-0.2121	0.2121
    61	0.0862677	-0.2121	0.2121
    62	0.0689516	-0.2121	0.2121
    63	0.049003	-0.2121	0.2121
    64	0.0904931	-0.2121	0.2121
    65	0.0717111	-0.2121	0.2121
    66	0.105508	-0.2121	0.2121
    67	0.0652489	-0.2121	0.2121
    68	0.101104	-0.2121	0.2121
    69	0.0633241	-0.2121	0.2121
    70	0.0418488	-0.2121	0.2121
    71	0.0963452	-0.2121	0.2121
    72	0.0839099	-0.2121	0.2121
    73	0.0788058	-0.2121	0.2121
    74	0.0809763	-0.2121	0.2121
    75	0.0842413	-0.2121	0.2121
    76	0.0901791	-0.2121	0.2121
    77	0.0894968	-0.2121	0.2121
    78	0.0734912	-0.2121	0.2121
    79	0.0491981	-0.2121	0.2121
    80	0.0830287	-0.2121	0.2121
    81	0.105385	-0.2121	0.2121
    82	0.0793515	-0.2121	0.2121
    83	0.100006	-0.2121	0.2121
    84	0.0936116	-0.2121	0.2121
    85	0.0909359	-0.2121	0.2121
    86	0.10028	-0.2121	0.2121
    87	0.102884	-0.2121	0.2121
    88	0.0972461	-0.2121	0.2121
    89	0.0549734	-0.2121	0.2121
    90	0.102676	-0.2121	0.2121
    91	0.0675649	-0.2121	0.2121
    92	0.0994515	-0.2121	0.2121
    93	0.0952616	-0.2121	0.2121
    94	0.102757	-0.2121	0.2121
    95	0.0962695	-0.2121	0.2121
    96	0.0842632	-0.2121	0.2121
    97	0.0978378	-0.2121	0.2121
    98	0.0868583	-0.2121	0.2121
    99	0.0739839	-0.2121	0.2121
   100	0.101253	-0.2121	0.2121
   101	0.0897927	-0.2121	0.2121
   102	0.102953	-0.2121	0.2121
   103	0.0749194	-0.2121	0.2121
   104	0.103523	-0.2121	0.2121
   105	0.0805476	-0.2121	0.2121
   106	0.0973237	-0.2121	0.2121
   107	0.0712973	-0.2121	0.2121
   108	0.0756792	-0.2121	0.2121
   109	0.0451134	-0.2121	0.2121
   110	0.106883	-0.2121	0.2121
   111	0.0612606	-0.2121	0.2121
   112	0.0288235	-0.2121	0.2121
   113	0.0897471	-0.2121	0.2121
   114	0.0858339	-0.2121	0.2121
   115	0.086073	-0.2121	0.2121
   116	0.102481	-0.2121	0.2121
   117	0.090018	-0.2121	0.2121
   118	0.090511	-0.2121	0.2121
   119	0.104423	-0.2121	0.2121
   120	0.0453212	-0.2121	0.2121
   121	0.0910157	-0.2121	0.2121
   122	0.097113	-0.2121	0.2121
   123	0.065355	-0.2121	0.2121
   124	0.0676956	-0.2121	0.2121
   125	0.0964649	-0.2121	0.2121
   126	0.0918831	-0.2121	0.2121
   127	0.105896	-0.2121	0.2121
   128	0.085098	-0.2121	0.2121
   129	0.100876	-0.2121	0.2121
   130	0.097895	-0.2121	0.2121
   131	0.0852679	-0.2121	0.2121
   132	0.0864268	-0.2121	0.2121
   133	0.10704	-0.2121	0.2121
   134	0.0783225	-0.2121	0.2121
   135	0.0643299	-0.2121	0.2121
   136	0.102264	-0.2121	0.2121
   137	0.0801312	-0.2121	0.2121
   138	0.0817141	-0.2121	0.2121
   139	0.0628498	-0.2121	0.2121
   140	0.105748	-0.2121	0.2121
   141	0.0582788	-0.2121	0.2121
   142	0.106686	-0.2121	0.2121
   143	0.0950784	-0.2121	0.2121
   144	0.0747965	-0.2121	0.2121
   145	0.105789	-0.2121	0.2121
   146	0.0462636	-0.2121	0.2121
   147	0.100114	-0.2121	0.2121
   148	0.09655	-0.2121	0.2121
   149	0.0964867	-0.2121	0.2121
   150	0.0718559	-0.2121	0.2121
   151	0.093749	-0.2121	0.2121
   152	0.0976395	-0.2121	0.2121
   153	0.0773978	-0.2121	0.2121
   154	0.105381	-0.2121	0.2121
   155	0.0955339	-0.2121	0.2121
   156	0.088967	-0.2121	0.2121
   157	0.0795597	-0.2121	0.2121
   158	0.0842518	-0.2121	0.2121
   159	0.0974807	-0.2121	0.2121
   160	0.0936268	-0.2121	0.2121
   161	0.105803	-0.2121	0.2121
   162	0.0719773	-0.2121	0.2121
   163	0.0815874	-0.2121	0.2121
   164	0.0545095	-0.2121	0.2121
   165	0.105292	-0.2121	0.2121
   166	0.0980225	-0.2121	0.2121
   167	0.0401033	-0.2121	0.2121
   168	0.0966924	-0.2121	0.2121
   169	0.0263567	-0.2121	0.2121
   170	0.0858798	-0.2121	0.2121
   171	0.0807218	-0.2121	0.2121
   172	0.0845778	-0.2121	0.2121
   173	0.0785925	-0.2121	0.2121
   174	0.0849165	-0.2121	0.2121
   175	0.0710125	-0.2121	0.2121
   176	0.0779748	-0.2121	0.2121
   177	0.0787003	-0.2121	0.2121
   178	0.0824764	-0.2121	0.2121
   179	0.0906947	-0.2121	0.2121
   180	0.0801248	-0.2121	0.2121
   181	0.0877011	-0.2121	0.2121
   182	0.0892837	-0.2121	0.2121
   183	0.102072	-0.2121	0.2121
   184	0.0921237	-0.2121	0.2121
   185	0.0633521	-0.2121	0.2121
   186	0.0760793	-0.2121	0.2121
   187	0.0776915	-0.2121	0.2121
   188	0.0919012	-0.2121	0.2121
   189	0.101777	-0.2121	0.2121
   190	0.0731842	-0.2121	0.2121
   191	0.0908419	-0.2121	0.2121
   192	0.0706813	-0.2121	0.2121
   193	0.104876	-0.2121	0.2121
   194	0.0637229	-0.2121	0.2121
   195	0.0967731	-0.2121	0.2121
   196	0.0864513	-0.2121	0.2121
   197	0.0634441	-0.2121	0.2121
   198	0.0929593	-0.2121	0.2121
   199	0.0784534	-0.2121	0.2121
   200	0.101285	-0.2121	0.2121
   201	0.0952822	-0.2121	0.2121
   202	0.0814813	-0.2121	0.2121
   203	0.106223	-0.2121	0.2121
   204	0.0836961	-0.2121	0.2121
   205	0.0930339	-0.2121	0.2121
   206	0.105516	-0.2121	0.2121
   207	0.0991446	-0.2121	0.2121
   208	0.0914996	-0.2121	0.2121
   209	0.103089	-0.2121	0.2121
   210	0.0923845	-0.2121	0.2121
   211	0.102973	-0.2121	0.2121
   212	0.0962275	-0.2121	0.2121
   213	0.101206	-0.2121	0.2121
   214	0.105599	-0.2121	0.2121
   215	0.085313	-0.2121	0.2121
   216	0.0717066	-0.2121	0.2121
   217	0.0618777	-0.2121	0.2121
   218	0.10152	-0.2121	0.2121
   219	0.0744033	-0.2121	0.2121
   220	0.107206	-0.2121	0.2121
   221	0.0824466	-0.2121	0.2121
   222	0.107029	-0.2121	0.2121
   223	0.0812941	-0.2121	0.2121
   224	0.100076	-0.2121	0.2121
   225	0.0701263	-0.2121	0.2121
   226	0.049012	-0.2121	0.2121
   227	0.0764063	-0.2121	0.2121
   228	0.0749596	-0.2121	0.2121
   229	0.0758291	-0.2121	0.2121
   230	0.0594688	-0.2121	0.2121
   231	0.0756646	-0.2121	0.2121
   232	0.0762225	-0.2121	0.2121
   233	0.0785538	-0.2121	0.2121
   234	0.0851758	-0.2121	0.2121
   235	0.0973064	-0.2121	0.2121
   236	0.0206904	-0.2121	0.2121
   237	0.0501594	-0.2121	0.2121
   238	0.0815215	-0.2121	0.2121
   239	0.0767508	-0.2121	0.2121
   240	0.086026	-0.2121	0.2121
   241	0.0988394	-0.2121	0.2121
   242	0.103842	-0.2121	0.2121
   243	0.0896279	-0.2121	0.2121
   244	0.0722757	-0.2121	0.2121
   245	0.1068	-0.2121	0.2121
   246	0.0829262	-0.2121	0.2121
   247	0.0979142	-0.2121	0.2121
   248	0.100327	-0.2121	0.2121
   249	0.104769	-0.2121	0.2121
   250	0.103179	-0.2121	0.2121
   251	0.102577	-0.2121	0.2121
   252	0.0899664	-0.2121	0.2121
   253	0.0894936	-0.2121	0.2121
   254	0.0787767	-0.2121	0.2121
   255	0.0861604	-0.2121	0.2121
   256	0.0747269	-0.2121	0.2121
   257	0.044348	-0.2121	0.2121
   258	0.083937	-0.2121	0.2121
   259	0.0819718	-0.2121	0.2121
   260	0.0937894	-0.2121	0.2121
   261	0.0829637	-0.2121	0.2121
   262	0.105777	-0.2121	0.2121
   263	0.0962239	-0.2121	0.2121
   264	0.098737	-0.2121	0.2121
   265	0.0586857	-0.2121	0.2121
   266	0.0759987	-0.2121	0.2121
   267	0.0694829	-0.2121	0.2121
   268	0.0913412	-0.2121	0.2121
   269	0.090846	-0.2121	0.2121
   270	0.064125	-0.2121	0.2121
   271	0.106904	-0.2121	0.2121
   272	0.106419	-0.2121	0.2121
   273	0.0883938	-0.2121	0.2121
   274	0.0882275	-0.2121	0.2121
   275	0.099208	-0.2121	0.2121
   276	0.0422473	-0.2121	0.2121
   277	0.0734421	-0.2121	0.2121
   278	0.0909291	-0.2121	0.2121
   279	0.0838983	-0.2121	0.2121
   280	0.0964985	-0.2121	0.2121
   281	0.0963682	-0.2121	0.2121
   282	0.0925658	-0.2121	0.2121
   283	0.0753253	-0.2121	0.2121
   284	0.0968976	-0.2121	0.2121
   285	0.0867467	-0.2121	0.2121
   286	0.0964646	-0.2121	0.2121
   287	0.0833778	-0.2121	0.2121
   288	0.0875114	-0.2121	0.2121
   289	0.0853845	-0.2121	0.2121
   290	0.0980334	-0.2121	0.2121
   291	0.0737946	-0.2121	0.2121
   292	0.0748033	-0.2121	0.2121
   293	0.0695846	-0.2121	0.2121
   294	0.0919805	-0.2121	0.2121
   295	0.0775603	-0.2121	0.2121
   296	0.0932414	-0.2121	0.2121
   297	0.102753	-0.2121	0.2121
   298	0.0894586	-0.2121	0.2121
   299	0.105969	-0.2121	0.2121
   300	0.0673758	-0.2121	0.2121
   301	0.0912095	-0.2121	0.2121
   302	0.0577916	-0.2121	0.2121
   303	0.0800389	-0.2121	0.2121
   304	0.0767307	-0.2121	0.2121
   305	0.0594467	-0.2121	0.2121
   306	0.0668446	-0.2121	0.2121
   307	0.0791095	-0.2121	0.2121
   308	0.0811925	-0.2121	0.2121
   309	0.0967956	-0.2121	0.2121
   310	0.084767	-0.2121	0.2121
   311	0.0798816	-0.2121	0.2121
   312	0.0942019	-0.2121	0.2121
   313	0.101296	-0.2121	0.2121
   314	0.107379	-0.2121	0.2121
   315	0.089857	-0.2121	0.2121
   316	0.0904505	-0.2121	0.2121
   317	0.0588929	-0.2121	0.2121
   318	0.0913325	-0.2121	0.2121
   319	0.0312871	-0.2121	0.2121
   320	0.0686488	-0.2121	0.2121
   321	0.0638359	-0.2121	0.2121
   322	0.104127	-0.2121	0.2121
   323	0.0878592	-0.2121	0.2121
   324	0.0835832	-0.2121	0.2121
   325	0.0957833	-0.2121	0.2121
   326	0.0728082	-0.2121	0.2121
   327	0.106511	-0.2121	0.2121
   328	0.106522	-0.2121	0.2121
   329	0.104358	-0.2121	0.2121
   330	0.104664	-0.2121	0.2121
   331	0.0841497	-0.2121	0.2121
   332	0.0785746	-0.2121	0.2121
   333	0.0979719	-0.2121	0.2121
   334	0.100786	-0.2121	0.2121
   335	0.098678	-0.2121	0.2121
   336	0.0978606	-0.2121	0.2121
   337	0.0711712	-0.2121	0.2121
   338	0.0761712	-0.2121	0.2121
   339	0.0584573	-0.2121	0.2121
   340	0.0562282	-0.2121	0.2121
   341	0.104188	-0.2121	0.2121
   342	0.074145	-0.2121	0.2121
   343	0.0888108	-0.2121	0.2121
   344	0.0790184	-0.2121	0.2121
   345	0.0706365	-0.2121	0.2121
   346	0.105389	-0.2121	0.2121
   347	0.0871092	-0.2121	0.2121
   348	0.100312	-0.2121	0.2121
   349	0.0297803	-0.2121	0.2121
   350	0.0984083	-0.2121	0.2121
   351	0.102017	-0.2121	0.2121
   352	0.0821896	-0.2121	0.2121
   353	0.0985471	-0.2121	0.2121
   354	0.0940149	-0.2121	0.2121
   355	0.0982674	-0.2121	0.2121
   356	0.0856804	-0.2121	0.2121
   357	0.105227	-0.2121	0.2121
   358	0.106407	-0.2121	0.2121
   359	0.100737	-0.2121	0.2121
   360	0.0905849	-0.2121	0.2121
   361	0.0456583	-0.2121	0.2121
   362	0.0729183	-0.2121	0.2121
   363	0.0747333	-0.2121	0.2121
   364	0.0819194	-0.2121	0.2121
   365	0.0561144	-0.2121	0.2121
   366	0.0640731	-0.2121	0.2121
   367	0.0995496	-0.2121	0.2121
   368	0.103328	-0.2121	0.2121
   369	0.10569	-0.2121	0.2121
   370	0.0789852	-0.2121	0.2121
   371	0.085503	-0.2121	0.2121
   372	0.0886136	-0.2121	0.2121
   373	0.0530572	-0.2121	0.2121
   374	0.0833374	-0.2121	0.2121
   375	0.103838	-0.2121	0.2121
   376	0.0813489	-0.2121	0.2121
   377	0.104567	-0.2121	0.2121
   378	0.0908585	-0.2121	0.2121
   379	0.0330484	-0.2121	0.2121
   380	0.100383	-0.2121	0.2121
   381	0.0952457	-0.2121	0.2121
   382	0.0542352	-0.2121	0.2121
   383	0.0650703	-0.2121	0.2121
   384	0.103743	-0.2121	0.2121
   385	0.105931	-0.2121	0.2121
   386	0.0783963	-0.2121	0.2121
   387	0.105392	-0.2121	0.2121
   388	0.0996295	-0.2121	0.2121
   389	0.0725075	-0.2121	0.2121
   390	0.0940723	-0.2121	0.2121
   391	0.0487985	-0.2121	0.2121
   392	0.105067	-0.2121	0.2121
   393	0.0783927	-0.2121	0.2121
   394	0.10162	-0.2121	0.2121
   395	0.0967925	-0.2121	0.2121
   396	0.0725627	-0.2121	0.2121
   397	0.0944783	-0.2121	0.2121
   398	0.0867008	-0.2121	0.2121
   399	0.0841275	-0.2121	0.2121
   400	0.0594782	-0.2121	0.2121

Measurement: snm_min
  step	MIN(0.707*v(v1)-0.707*v(v2))	FROM	TO
     1	-0.0377691	-0.2121	0.2121
     2	-0.0878151	-0.2121	0.2121
     3	-0.0628379	-0.2121	0.2121
     4	-0.0890512	-0.2121	0.2121
     5	-0.105673	-0.2121	0.2121
     6	-0.103763	-0.2121	0.2121
     7	-0.0978697	-0.2121	0.2121
     8	-0.0535861	-0.2121	0.2121
     9	-0.0685384	-0.2121	0.2121
    10	-0.0776256	-0.2121	0.2121
    11	-0.0385126	-0.2121	0.2121
    12	-0.0803738	-0.2121	0.2121
    13	-0.0871384	-0.2121	0.2121
    14	-0.0866551	-0.2121	0.2121
    15	-0.0599104	-0.2121	0.2121
    16	-0.0772	-0.2121	0.2121
    17	-0.0786535	-0.2121	0.2121
    18	-0.0899547	-0.2121	0.2121
    19	-0.0931613	-0.2121	0.2121
    20	-0.103898	-0.2121	0.2121
    21	-0.0605285	-0.2121	0.2121
    22	-0.0793619	-0.2121	0.2121
    23	-0.0881116	-0.2121	0.2121
    24	-0.101446	-0.2121	0.2121
    25	-0.105537	-0.2121	0.2121
    26	-0.0583885	-0.2121	0.2121
    27	-0.107309	-0.2121	0.2121
    28	-0.0439425	-0.2121	0.2121
    29	-0.0687078	-0.2121	0.2121
    30	-0.0726668	-0.2121	0.2121
    31	-0.0667836	-0.2121	0.2121
    32	-0.0781468	-0.2121	0.2121
    33	-0.0803204	-0.2121	0.2121
    34	-0.0987519	-0.2121	0.2121
    35	-0.0907998	-0.2121	0.2121
    36	-0.0857281	-0.2121	0.2121
    37	-0.0855694	-0.2121	0.2121
    38	-0.0877092	-0.2121	0.2121
    39	-0.0986145	-0.2121	0.2121
    40	-0.0753467	-0.2121	0.2121
    41	-0.0551159	-0.2121	0.2121
    42	-0.0687719	-0.2121	0.2121
    43	-0.0967185	-0.2121	0.2121
    44	-0.0940257	-0.2121	0.2121
    45	-0.10056	-0.2121	0.2121
    46	-0.0755156	-0.2121	0.2121
    47	-0.0733422	-0.2121	0.2121
    48	-0.092343	-0.2121	0.2121
    49	-0.0894477	-0.2121	0.2121
    50	-0.0380038	-0.2121	0.2121
    51	-0.0993469	-0.2121	0.2121
    52	-0.0999213	-0.2121	0.2121
    53	-0.0757767	-0.2121	0.2121
    54	-0.0979549	-0.2121	0.2121
    55	-0.100117	-0.2121	0.2121
    56	-0.105334	-0.2121	0.2121
    57	-0.0873087	-0.2121	0.2121
    58	-0.0980845	-0.2121	0.2121
    59	-0.0728862	-0.2121	0.2121
    60	-0.0936415	-0.2121	0.2121
    61	-0.0864382	-0.2121	0.2121
    62	-0.069036	-0.2121	0.2121
    63	-0.0490345	-0.2121	0.2121
    64	-0.0905637	-0.2121	0.2121
    65	-0.0716987	-0.2121	0.2121
    66	-0.105313	-0.2121	0.2121
    67	-0.065265	-0.2121	0.2121
    68	-0.100744	-0.2121	0.2121
    69	-0.063283	-0.2121	0.2121
    70	-0.0417948	-0.2121	0.2121
    71	-0.0962137	-0.2121	0.2121
    72	-0.0840573	-0.2121	0.2121
    73	-0.0787215	-0.2121	0.2121
    74	-0.080961	-0.2121	0.2121
    75	-0.0844362	-0.2121	0.2121
    76	-0.0902535	-0.2121	0.2121
    77	-0.0895856	-0.2121	0.2121
    78	-0.0734001	-0.2121	0.2121
    79	-0.0492589	-0.2121	0.2121
    80	-0.0831583	-0.2121	0.2121
    81	-0.105193	-0.2121	0.2121
    82	-0.0792756	-0.2121	0.2121
    83	-0.0997023	-0.2121	0.2121
    84	-0.093576	-0.2121	0.2121
    85	-0.090985	-0.2121	0.2121
    86	-0.0999635	-0.2121	0.2121
    87	-0.102545	-0.2121	0.2121
    88	-0.0970718	-0.2121	0.2121
    89	-0.0549786	-0.2121	0.2121
    90	-0.102329	-0.2121	0.2121
    91	-0.0676482	-0.2121	0.2121
    92	-0.0991752	-0.2121	0.2121
    93	-0.0951725	-0.2121	0.2121
    94	-0.102415	-0.2121	0.2121
    95	-0.0961457	-0.2121	0.2121
    96	-0.0844554	-0.2121	0.2121
    97	-0.0976366	-0.2121	0.2121
    98	-0.0870129	-0.2121	0.2121
    99	-0.0739258	-0.2121	0.2121
   100	-0.100885	-0.2121	0.2121
   101	-0.089878	-0.2121	0.2121
   102	-0.102621	-0.2121	0.2121
   103	-0.0748323	-0.2121	0.2121
   104	-0.103223	-0.2121	0.2121
   105	-0.0805399	-0.2121	0.2121
   106	-0.0971554	-0.2121	0.2121
   107	-0.0713029	-0.2121	0.2121
   108	-0.0755443	-0.2121	0.2121
   109	-0.0450337	-0.2121	0.2121
   110	-0.1068	-0.2121	0.2121
   111	-0.0612089	-0.2121	0.2121
   112	-0.0287814	-0.2121	0.2121
   113	-0.0898289	-0.2121	0.2121
   114	-0.086013	-0.2121	0.2121
   115	-0.0862817	-0.2121	0.2121
   116	-0.102244	-0.2121	0.2121
   117	-0.0901011	-0.2121	0.2121
   118	-0.0905784	-0.2121	0.2121
   119	-0.104304	-0.2121	0.2121
   120	-0.0452379	-0.2121	0.2121
   121	-0.0910617	-0.2121	0.2121
   122	-0.0969475	-0.2121	0.2121
   123	-0.065427	-0.2121	0.2121
   124	-0.0678037	-0.2121	0.2121
   125	-0.0963225	-0.2121	0.2121
   126	-0.0919151	-0.2121	0.2121
   127	-0.105738	-0.2121	0.2121
   128	-0.0852884	-0.2121	0.2121
   129	-0.100537	-0.2121	0.2121
   130	-0.0976914	-0.2121	0.2121
   131	-0.0854683	-0.2121	0.2121
   132	-0.0865894	-0.2121	0.2121
   133	-0.106968	-0.2121	0.2121
   134	-0.078222	-0.2121	0.2121
   135	-0.0643303	-0.2121	0.2121
   136	-0.101896	-0.2121	0.2121
   137	-0.0801414	-0.2121	0.2121
   138	-0.0817322	-0.2121	0.2121
   139	-0.0628432	-0.2121	0.2121
   140	-0.105585	-0.2121	0.2121
   141	-0.0582485	-0.2121	0.2121
   142	-0.106571	-0.2121	0.2121
   143	-0.0950018	-0.2121	0.2121
   144	-0.0747225	-0.2121	0.2121
   145	-0.105644	-0.2121	0.2121
   146	-0.0462244	-0.2121	0.2121
   147	-0.0998058	-0.2121	0.2121
   148	-0.0964075	-0.2121	0.2121
   149	-0.0963437	-0.2121	0.2121
   150	-0.0718631	-0.2121	0.2121
   151	-0.0937156	-0.2121	0.2121
   152	-0.0974562	-0.2121	0.2121
   153	-0.0772702	-0.2121	0.2121
   154	-0.105185	-0.2121	0.2121
   155	-0.09543	-0.2121	0.2121
   156	-0.0890693	-0.2121	0.2121
   157	-0.0795298	-0.2121	0.2121
   158	-0.0844342	-0.2121	0.2121
   159	-0.0973027	-0.2121	0.2121
   160	-0.0935907	-0.2121	0.2121
   161	-0.105639	-0.2121	0.2121
   162	-0.0719549	-0.2121	0.2121
   163	-0.0816052	-0.2121	0.2121
   164	-0.0545397	-0.2121	0.2121
   165	-0.105078	-0.2121	0.2121
   166	-0.0978143	-0.2121	0.2121
   167	-0.0401142	-0.2121	0.2121
   168	-0.0965429	-0.2121	0.2121
   169	-0.0263565	-0.2121	0.2121
   170	-0.086059	-0.2121	0.2121
   171	-0.0807387	-0.2121	0.2121
   172	-0.0847101	-0.2121	0.2121
   173	-0.078528	-0.2121	0.2121
   174	-0.085129	-0.2121	0.2121
   175	-0.0709959	-0.2121	0.2121
   176	-0.0778302	-0.2121	0.2121
   177	-0.0786505	-0.2121	0.2121
   178	-0.0825467	-0.2121	0.2121
   179	-0.090759	-0.2121	0.2121
   180	-0.0801284	-0.2121	0.2121
   181	-0.0878383	-0.2121	0.2121
   182	-0.0893798	-0.2121	0.2121
   183	-0.101696	-0.2121	0.2121
   184	-0.0921379	-0.2121	0.2121
   185	-0.0633294	-0.2121	0.2121
   186	-0.075944	-0.2121	0.2121
   187	-0.077613	-0.2121	0.2121
   188	-0.0919231	-0.2121	0.2121
   189	-0.101661	-0.2121	0.2121
   190	-0.0731251	-0.2121	0.2121
   191	-0.0909009	-0.2121	0.2121
   192	-0.0707029	-0.2121	0.2121
   193	-0.104642	-0.2121	0.2121
   194	-0.0637212	-0.2121	0.2121
   195	-0.0966172	-0.2121	0.2121
   196	-0.0866135	-0.2121	0.2121
   197	-0.0634174	-0.2121	0.2121
   198	-0.0929661	-0.2121	0.2121
   199	-0.0783743	-0.2121	0.2121
   200	-0.100915	-0.2121	0.2121
   201	-0.0951932	-0.2121	0.2121
   202	-0.081507	-0.2121	0.2121
   203	-0.10607	-0.2121	0.2121
   204	-0.0838615	-0.2121	0.2121
   205	-0.0930226	-0.2121	0.2121
   206	-0.105379	-0.2121	0.2121
   207	-0.0988888	-0.2121	0.2121
   208	-0.0915329	-0.2121	0.2121
   209	-0.10276	-0.2121	0.2121
   210	-0.0923892	-0.2121	0.2121
   211	-0.102642	-0.2121	0.2121
   212	-0.0960941	-0.2121	0.2121
   213	-0.100841	-0.2121	0.2121
   214	-0.105439	-0.2121	0.2121
   215	-0.085499	-0.2121	0.2121
   216	-0.0717342	-0.2121	0.2121
   217	-0.0618022	-0.2121	0.2121
   218	-0.101136	-0.2121	0.2121
   219	-0.0743333	-0.2121	0.2121
   220	-0.107125	-0.2121	0.2121
   221	-0.0824885	-0.2121	0.2121
   222	-0.106941	-0.2121	0.2121
   223	-0.0813481	-0.2121	0.2121
   224	-0.0997707	-0.2121	0.2121
   225	-0.0701747	-0.2121	0.2121
   226	-0.0489988	-0.2121	0.2121
   227	-0.0762839	-0.2121	0.2121
   228	-0.0748479	-0.2121	0.2121
   229	-0.0756841	-0.2121	0.2121
   230	-0.0593663	-0.2121	0.2121
   231	-0.075543	-0.2121	0.2121
   232	-0.076081	-0.2121	0.2121
   233	-0.0784632	-0.2121	0.2121
   234	-0.0853677	-0.2121	0.2121
   235	-0.0971293	-0.2121	0.2121
   236	-0.0206899	-0.2121	0.2121
   237	-0.050242	-0.2121	0.2121
   238	-0.081556	-0.2121	0.2121
   239	-0.0766155	-0.2121	0.2121
   240	-0.0861977	-0.2121	0.2121
   241	-0.0985923	-0.2121	0.2121
   242	-0.103553	-0.2121	0.2121
   243	-0.0897184	-0.2121	0.2121
   244	-0.0722577	-0.2121	0.2121
   245	-0.10672	-0.2121	0.2121
   246	-0.0830552	-0.2121	0.2121
   247	-0.09771	-0.2121	0.2121
   248	-0.100007	-0.2121	0.2121
   249	-0.104651	-0.2121	0.2121
   250	-0.102854	-0.2121	0.2121
   251	-0.102371	-0.2121	0.2121
   252	-0.0900423	-0.2121	0.2121
   253	-0.0895827	-0.2121	0.2121
   254	-0.0787352	-0.2121	0.2121
   255	-0.0863308	-0.2121	0.2121
   256	-0.0746479	-0.2121	0.2121
   257	-0.0442842	-0.2121	0.2121
   258	-0.0841164	-0.2121	0.2121
   259	-0.0820099	-0.2121	0.2121
   260	-0.0937511	-0.2121	0.2121
   261	-0.0830824	-0.2121	0.2121
   262	-0.105586	-0.2121	0.2121
   263	-0.0961025	-0.2121	0.2121
   264	-0.0984987	-0.2121	0.2121
   265	-0.0585872	-0.2121	0.2121
   266	-0.0758542	-0.2121	0.2121
   267	-0.069541	-0.2121	0.2121
   268	-0.0913872	-0.2121	0.2121
   269	-0.0908974	-0.2121	0.2121
   270	-0.0641728	-0.2121	0.2121
   271	-0.106807	-0.2121	0.2121
   272	-0.106315	-0.2121	0.2121
   273	-0.0885268	-0.2121	0.2121
   274	-0.0883562	-0.2121	0.2121
   275	-0.0989439	-0.2121	0.2121
   276	-0.0421999	-0.2121	0.2121
   277	-0.0733956	-0.2121	0.2121
   278	-0.090985	-0.2121	0.2121
   279	-0.0840759	-0.2121	0.2121
   280	-0.0963601	-0.2121	0.2121
   281	-0.0962311	-0.2121	0.2121
   282	-0.0925674	-0.2121	0.2121
   283	-0.0752105	-0.2121	0.2121
   284	-0.0967394	-0.2121	0.2121
   285	-0.0869056	-0.2121	0.2121
   286	-0.0963223	-0.2121	0.2121
   287	-0.0834998	-0.2121	0.2121
   288	-0.0876925	-0.2121	0.2121
   289	-0.0855696	-0.2121	0.2121
   290	-0.0978242	-0.2121	0.2121
   291	-0.0736838	-0.2121	0.2121
   292	-0.0746683	-0.2121	0.2121
   293	-0.069639	-0.2121	0.2121
   294	-0.0919978	-0.2121	0.2121
   295	-0.0774738	-0.2121	0.2121
   296	-0.0932429	-0.2121	0.2121
   297	-0.102476	-0.2121	0.2121
   298	-0.0895495	-0.2121	0.2121
   299	-0.105823	-0.2121	0.2121
   300	-0.0674656	-0.2121	0.2121
   301	-0.0912501	-0.2121	0.2121
   302	-0.0577192	-0.2121	0.2121
   303	-0.0800247	-0.2121	0.2121
   304	-0.0765852	-0.2121	0.2121
   305	-0.0593804	-0.2121	0.2121
   306	-0.0669531	-0.2121	0.2121
   307	-0.0790602	-0.2121	0.2121
   308	-0.0812007	-0.2121	0.2121
   309	-0.0966414	-0.2121	0.2121
   310	-0.0849645	-0.2121	0.2121
   311	-0.0798799	-0.2121	0.2121
   312	-0.0941519	-0.2121	0.2121
   313	-0.100927	-0.2121	0.2121
   314	-0.107318	-0.2121	0.2121
   315	-0.089939	-0.2121	0.2121
   316	-0.0905129	-0.2121	0.2121
   317	-0.0588191	-0.2121	0.2121
   318	-0.0913697	-0.2121	0.2121
   319	-0.0313369	-0.2121	0.2121
   320	-0.0687171	-0.2121	0.2121
   321	-0.0638018	-0.2121	0.2121
   322	-0.103888	-0.2121	0.2121
   323	-0.0879921	-0.2121	0.2121
   324	-0.0837147	-0.2121	0.2121
   325	-0.0956749	-0.2121	0.2121
   326	-0.0727809	-0.2121	0.2121
   327	-0.106423	-0.2121	0.2121
   328	-0.10642	-0.2121	0.2121
   329	-0.104095	-0.2121	0.2121
   330	-0.10442	-0.2121	0.2121
   331	-0.0843297	-0.2121	0.2121
   332	-0.0785269	-0.2121	0.2121
   333	-0.0977736	-0.2121	0.2121
   334	-0.100443	-0.2121	0.2121
   335	-0.0984454	-0.2121	0.2121
   336	-0.0976582	-0.2121	0.2121
   337	-0.071222	-0.2121	0.2121
   338	-0.0760357	-0.2121	0.2121
   339	-0.0583654	-0.2121	0.2121
   340	-0.0562465	-0.2121	0.2121
   341	-0.103915	-0.2121	0.2121
   342	-0.074092	-0.2121	0.2121
   343	-0.0889175	-0.2121	0.2121
   344	-0.0789481	-0.2121	0.2121
   345	-0.070652	-0.2121	0.2121
   346	-0.105251	-0.2121	0.2121
   347	-0.0872611	-0.2121	0.2121
   348	-0.0999556	-0.2121	0.2121
   349	-0.0297415	-0.2121	0.2121
   350	-0.0981896	-0.2121	0.2121
   351	-0.101637	-0.2121	0.2121
   352	-0.0822827	-0.2121	0.2121
   353	-0.0983139	-0.2121	0.2121
   354	-0.0939646	-0.2121	0.2121
   355	-0.098054	-0.2121	0.2121
   356	-0.0858796	-0.2121	0.2121
   357	-0.105083	-0.2121	0.2121
   358	-0.106317	-0.2121	0.2121
   359	-0.100398	-0.2121	0.2121
   360	-0.0906462	-0.2121	0.2121
   361	-0.0457091	-0.2121	0.2121
   362	-0.0728713	-0.2121	0.2121
   363	-0.074657	-0.2121	0.2121
   364	-0.0819466	-0.2121	0.2121
   365	-0.056122	-0.2121	0.2121
   366	-0.0640874	-0.2121	0.2121
   367	-0.0992686	-0.2121	0.2121
   368	-0.10302	-0.2121	0.2121
   369	-0.105533	-0.2121	0.2121
   370	-0.0789338	-0.2121	0.2121
   371	-0.0857021	-0.2121	0.2121
   372	-0.088733	-0.2121	0.2121
   373	-0.0531	-0.2121	0.2121
   374	-0.0834275	-0.2121	0.2121
   375	-0.103706	-0.2121	0.2121
   376	-0.0813953	-0.2121	0.2121
   377	-0.104427	-0.2121	0.2121
   378	-0.0909127	-0.2121	0.2121
   379	-0.0331213	-0.2121	0.2121
   380	-0.10006	-0.2121	0.2121
   381	-0.0951603	-0.2121	0.2121
   382	-0.0542527	-0.2121	0.2121
   383	-0.0651701	-0.2121	0.2121
   384	-0.103514	-0.2121	0.2121
   385	-0.105787	-0.2121	0.2121
   386	-0.0783206	-0.2121	0.2121
   387	-0.105204	-0.2121	0.2121
   388	-0.0993553	-0.2121	0.2121
   389	-0.0724779	-0.2121	0.2121
   390	-0.0940253	-0.2121	0.2121
   391	-0.0488569	-0.2121	0.2121
   392	-0.104943	-0.2121	0.2121
   393	-0.0783303	-0.2121	0.2121
   394	-0.101227	-0.2121	0.2121
   395	-0.0966394	-0.2121	0.2121
   396	-0.0725017	-0.2121	0.2121
   397	-0.0944284	-0.2121	0.2121
   398	-0.0868578	-0.2121	0.2121
   399	-0.084301	-0.2121	0.2121
   400	-0.0593877	-0.2121	0.2121


Date: Sat Dec  2 00:54:48 2023
Total elapsed time: 13.474 seconds.

tnom = 27
temp = 27
method = trap
totiter = 119
traniter = 0
tranpoints = 0
accept = 0
rejected = 0
matrix size = 33
fillins = 28
solver = Normal
Avg thread counts: 8.0/0.0/8.0/8.0
Matrix Compiler1: 2.20 KB object code size  0.6/0.4/[0.3]
Matrix Compiler2: 2.77 KB object code size  0.3/0.5/[0.3]

