Circuit: * D:\Disco D\universita\magistrale\progettazione-low-power\progetti\progetto-2\ltspice\models\gaussian-vth\hold\gaussian_vth_hold.asc

WARNING: Node NC_01 is floating.
WARNING: Node NC_02 is floating.
WARNING: Node NC_03 is floating.
WARNING: Node NC_04 is floating.
WARNING: Node NC_05 is floating.

WARNING: Less than two connections to node nc_01.  This node is used by vsweep.
WARNING: Less than two connections to node nc_02.  This node is used by e2.
WARNING: Less than two connections to node nc_03.  This node is used by e8.
WARNING: Less than two connections to node nc_04.  This node is used by m5.
WARNING: Less than two connections to node nc_05.  This node is used by m6.
Warning: Pd = 0 is less than W.
Warning: Ps = 0 is less than W.
Warning: Pd = 0 is less than W.
Warning: Ps = 0 is less than W.
Warning: Pd = 0 is less than W.
Warning: Ps = 0 is less than W.
.step run=1
.step run=2
.step run=3
.step run=4
.step run=5
.step run=6
.step run=7
.step run=8
.step run=9
.step run=10
.step run=11
.step run=12
.step run=13
.step run=14
.step run=15
.step run=16
.step run=17
.step run=18
.step run=19
.step run=20
.step run=21
.step run=22
.step run=23
.step run=24
.step run=25
.step run=26
.step run=27
.step run=28
.step run=29
.step run=30
.step run=31
.step run=32
.step run=33
.step run=34
.step run=35
.step run=36
.step run=37
.step run=38
.step run=39
.step run=40
.step run=41
.step run=42
.step run=43
.step run=44
.step run=45
.step run=46
.step run=47
.step run=48
.step run=49
.step run=50
.step run=51
.step run=52
.step run=53
.step run=54
.step run=55
.step run=56
.step run=57
.step run=58
.step run=59
.step run=60
.step run=61
.step run=62
.step run=63
.step run=64
.step run=65
.step run=66
.step run=67
.step run=68
.step run=69
.step run=70
.step run=71
.step run=72
.step run=73
.step run=74
.step run=75
.step run=76
.step run=77
.step run=78
.step run=79
.step run=80
.step run=81
.step run=82
.step run=83
.step run=84
.step run=85
.step run=86
.step run=87
.step run=88
.step run=89
.step run=90
.step run=91
.step run=92
.step run=93
.step run=94
.step run=95
.step run=96
.step run=97
.step run=98
.step run=99
.step run=100
.step run=101
.step run=102
.step run=103
.step run=104
.step run=105
.step run=106
.step run=107
.step run=108
.step run=109
.step run=110
.step run=111
.step run=112
.step run=113
.step run=114
.step run=115
.step run=116
.step run=117
.step run=118
.step run=119
.step run=120
.step run=121
.step run=122
.step run=123
.step run=124
.step run=125
.step run=126
.step run=127
.step run=128
.step run=129
.step run=130
.step run=131
.step run=132
.step run=133
.step run=134
.step run=135
.step run=136
.step run=137
.step run=138
.step run=139
.step run=140
.step run=141
.step run=142
.step run=143
.step run=144
.step run=145
.step run=146
.step run=147
.step run=148
.step run=149
.step run=150
.step run=151
.step run=152
.step run=153
.step run=154
.step run=155
.step run=156
.step run=157
.step run=158
.step run=159
.step run=160
.step run=161
.step run=162
.step run=163
.step run=164
.step run=165
.step run=166
.step run=167
.step run=168
.step run=169
.step run=170
.step run=171
.step run=172
.step run=173
.step run=174
.step run=175
.step run=176
.step run=177
.step run=178
.step run=179
.step run=180
.step run=181
.step run=182
.step run=183
.step run=184
.step run=185
.step run=186
.step run=187
.step run=188
.step run=189
.step run=190
.step run=191
.step run=192
.step run=193
.step run=194
.step run=195
.step run=196
.step run=197
.step run=198
.step run=199
.step run=200
.step run=201
.step run=202
.step run=203
.step run=204
.step run=205
.step run=206
.step run=207
.step run=208
.step run=209
.step run=210
.step run=211
.step run=212
.step run=213
.step run=214
.step run=215
.step run=216
.step run=217
.step run=218
.step run=219
.step run=220
.step run=221
.step run=222
.step run=223
.step run=224
.step run=225
.step run=226
.step run=227
.step run=228
.step run=229
.step run=230
.step run=231
.step run=232
.step run=233
.step run=234
.step run=235
.step run=236
.step run=237
.step run=238
.step run=239
.step run=240
.step run=241
.step run=242
.step run=243
.step run=244
.step run=245
.step run=246
.step run=247
.step run=248
.step run=249
.step run=250
.step run=251
.step run=252
.step run=253
.step run=254
.step run=255
.step run=256
.step run=257
.step run=258
.step run=259
.step run=260
.step run=261
.step run=262
.step run=263
.step run=264
.step run=265
.step run=266
.step run=267
.step run=268
.step run=269
.step run=270
.step run=271
.step run=272
.step run=273
.step run=274
.step run=275
.step run=276
.step run=277
.step run=278
.step run=279
.step run=280
.step run=281
.step run=282
.step run=283
.step run=284
.step run=285
.step run=286
.step run=287
.step run=288
.step run=289
.step run=290
.step run=291
.step run=292
.step run=293
.step run=294
.step run=295
.step run=296
.step run=297
.step run=298
.step run=299
.step run=300
.step run=301
.step run=302
.step run=303
.step run=304
.step run=305
.step run=306
.step run=307
.step run=308
.step run=309
.step run=310
.step run=311
.step run=312
.step run=313
.step run=314
.step run=315
.step run=316
.step run=317
.step run=318
.step run=319
.step run=320
.step run=321
.step run=322
.step run=323
.step run=324
.step run=325
.step run=326
.step run=327
.step run=328
.step run=329
.step run=330
.step run=331
.step run=332
.step run=333
.step run=334
.step run=335
.step run=336
.step run=337
.step run=338
.step run=339
.step run=340
.step run=341
.step run=342
.step run=343
.step run=344
.step run=345
.step run=346
.step run=347
.step run=348
.step run=349
.step run=350
.step run=351
.step run=352
.step run=353
.step run=354
.step run=355
.step run=356
.step run=357
.step run=358
.step run=359
.step run=360
.step run=361
.step run=362
.step run=363
.step run=364
.step run=365
.step run=366
.step run=367
.step run=368
.step run=369
.step run=370
.step run=371
.step run=372
.step run=373
.step run=374
.step run=375
.step run=376
.step run=377
.step run=378
.step run=379
.step run=380
.step run=381
.step run=382
.step run=383
.step run=384
.step run=385
.step run=386
.step run=387
.step run=388
.step run=389
.step run=390
.step run=391
.step run=392
.step run=393
.step run=394
.step run=395
.step run=396
.step run=397
.step run=398
.step run=399
.step run=400


Measurement: snm_max
  step	MAX(0.707*v(v1)-0.707*v(v2))	FROM	TO
     1	0.243042	-0.707	0.707
     2	0.275921	-0.707	0.707
     3	0.263922	-0.707	0.707
     4	0.255892	-0.707	0.707
     5	0.322741	-0.707	0.707
     6	0.273245	-0.707	0.707
     7	0.265313	-0.707	0.707
     8	0.211347	-0.707	0.707
     9	0.232078	-0.707	0.707
    10	0.252986	-0.707	0.707
    11	0.22044	-0.707	0.707
    12	0.242141	-0.707	0.707
    13	0.237378	-0.707	0.707
    14	0.274748	-0.707	0.707
    15	0.25525	-0.707	0.707
    16	0.249447	-0.707	0.707
    17	0.279	-0.707	0.707
    18	0.250886	-0.707	0.707
    19	0.268958	-0.707	0.707
    20	0.273217	-0.707	0.707
    21	0.261916	-0.707	0.707
    22	0.243044	-0.707	0.707
    23	0.249347	-0.707	0.707
    24	0.261686	-0.707	0.707
    25	0.273493	-0.707	0.707
    26	0.255574	-0.707	0.707
    27	0.312729	-0.707	0.707
    28	0.207689	-0.707	0.707
    29	0.249603	-0.707	0.707
    30	0.272973	-0.707	0.707
    31	0.252593	-0.707	0.707
    32	0.246261	-0.707	0.707
    33	0.271633	-0.707	0.707
    34	0.269402	-0.707	0.707
    35	0.237309	-0.707	0.707
    36	0.274957	-0.707	0.707
    37	0.245899	-0.707	0.707
    38	0.253841	-0.707	0.707
    39	0.258603	-0.707	0.707
    40	0.241594	-0.707	0.707
    41	0.232642	-0.707	0.707
    42	0.287076	-0.707	0.707
    43	0.275774	-0.707	0.707
    44	0.247492	-0.707	0.707
    45	0.26769	-0.707	0.707
    46	0.253592	-0.707	0.707
    47	0.227659	-0.707	0.707
    48	0.218792	-0.707	0.707
    49	0.26818	-0.707	0.707
    50	0.207934	-0.707	0.707
    51	0.284136	-0.707	0.707
    52	0.301368	-0.707	0.707
    53	0.240208	-0.707	0.707
    54	0.299654	-0.707	0.707
    55	0.288075	-0.707	0.707
    56	0.276855	-0.707	0.707
    57	0.273339	-0.707	0.707
    58	0.289364	-0.707	0.707
    59	0.219209	-0.707	0.707
    60	0.250185	-0.707	0.707
    61	0.271601	-0.707	0.707
    62	0.264554	-0.707	0.707
    63	0.226351	-0.707	0.707
    64	0.242742	-0.707	0.707
    65	0.241587	-0.707	0.707
    66	0.297646	-0.707	0.707
    67	0.269417	-0.707	0.707
    68	0.267771	-0.707	0.707
    69	0.260426	-0.707	0.707
    70	0.206906	-0.707	0.707
    71	0.250488	-0.707	0.707
    72	0.265136	-0.707	0.707
    73	0.268685	-0.707	0.707
    74	0.283119	-0.707	0.707
    75	0.228843	-0.707	0.707
    76	0.275823	-0.707	0.707
    77	0.263303	-0.707	0.707
    78	0.223489	-0.707	0.707
    79	0.215326	-0.707	0.707
    80	0.244288	-0.707	0.707
    81	0.284108	-0.707	0.707
    82	0.278752	-0.707	0.707
    83	0.274222	-0.707	0.707
    84	0.27015	-0.707	0.707
    85	0.255531	-0.707	0.707
    86	0.277539	-0.707	0.707
    87	0.292092	-0.707	0.707
    88	0.277171	-0.707	0.707
    89	0.221274	-0.707	0.707
    90	0.285544	-0.707	0.707
    91	0.233234	-0.707	0.707
    92	0.267639	-0.707	0.707
    93	0.286504	-0.707	0.707
    94	0.27225	-0.707	0.707
    95	0.295961	-0.707	0.707
    96	0.243789	-0.707	0.707
    97	0.272844	-0.707	0.707
    98	0.248237	-0.707	0.707
    99	0.258223	-0.707	0.707
   100	0.255829	-0.707	0.707
   101	0.246595	-0.707	0.707
   102	0.276275	-0.707	0.707
   103	0.259137	-0.707	0.707
   104	0.271075	-0.707	0.707
   105	0.263367	-0.707	0.707
   106	0.245806	-0.707	0.707
   107	0.246529	-0.707	0.707
   108	0.243509	-0.707	0.707
   109	0.242617	-0.707	0.707
   110	0.305864	-0.707	0.707
   111	0.227528	-0.707	0.707
   112	0.217193	-0.707	0.707
   113	0.260805	-0.707	0.707
   114	0.269815	-0.707	0.707
   115	0.22242	-0.707	0.707
   116	0.289209	-0.707	0.707
   117	0.283617	-0.707	0.707
   118	0.245315	-0.707	0.707
   119	0.267453	-0.707	0.707
   120	0.239755	-0.707	0.707
   121	0.260204	-0.707	0.707
   122	0.253847	-0.707	0.707
   123	0.239265	-0.707	0.707
   124	0.275906	-0.707	0.707
   125	0.274026	-0.707	0.707
   126	0.291398	-0.707	0.707
   127	0.286684	-0.707	0.707
   128	0.254979	-0.707	0.707
   129	0.297098	-0.707	0.707
   130	0.263947	-0.707	0.707
   131	0.23363	-0.707	0.707
   132	0.256161	-0.707	0.707
   133	0.298603	-0.707	0.707
   134	0.267327	-0.707	0.707
   135	0.256339	-0.707	0.707
   136	0.293928	-0.707	0.707
   137	0.231324	-0.707	0.707
   138	0.282106	-0.707	0.707
   139	0.231544	-0.707	0.707
   140	0.282097	-0.707	0.707
   141	0.256459	-0.707	0.707
   142	0.300565	-0.707	0.707
   143	0.295843	-0.707	0.707
   144	0.266724	-0.707	0.707
   145	0.277138	-0.707	0.707
   146	0.22486	-0.707	0.707
   147	0.263977	-0.707	0.707
   148	0.282846	-0.707	0.707
   149	0.260423	-0.707	0.707
   150	0.260378	-0.707	0.707
   151	0.286145	-0.707	0.707
   152	0.294224	-0.707	0.707
   153	0.262864	-0.707	0.707
   154	0.28792	-0.707	0.707
   155	0.256253	-0.707	0.707
   156	0.259119	-0.707	0.707
   157	0.249694	-0.707	0.707
   158	0.252615	-0.707	0.707
   159	0.291227	-0.707	0.707
   160	0.270316	-0.707	0.707
   161	0.285876	-0.707	0.707
   162	0.239739	-0.707	0.707
   163	0.277843	-0.707	0.707
   164	0.231578	-0.707	0.707
   165	0.305581	-0.707	0.707
   166	0.277775	-0.707	0.707
   167	0.235445	-0.707	0.707
   168	0.28055	-0.707	0.707
   169	0.166026	-0.707	0.707
   170	0.24193	-0.707	0.707
   171	0.250684	-0.707	0.707
   172	0.305017	-0.707	0.707
   173	0.247468	-0.707	0.707
   174	0.230106	-0.707	0.707
   175	0.224504	-0.707	0.707
   176	0.34193	-0.707	0.707
   177	0.237691	-0.707	0.707
   178	0.269311	-0.707	0.707
   179	0.284822	-0.707	0.707
   180	0.240397	-0.707	0.707
   181	0.271161	-0.707	0.707
   182	0.250133	-0.707	0.707
   183	0.268449	-0.707	0.707
   184	0.271747	-0.707	0.707
   185	0.249047	-0.707	0.707
   186	0.231298	-0.707	0.707
   187	0.222793	-0.707	0.707
   188	0.273657	-0.707	0.707
   189	0.248979	-0.707	0.707
   190	0.239182	-0.707	0.707
   191	0.283097	-0.707	0.707
   192	0.246021	-0.707	0.707
   193	0.297938	-0.707	0.707
   194	0.244669	-0.707	0.707
   195	0.265615	-0.707	0.707
   196	0.258454	-0.707	0.707
   197	0.253523	-0.707	0.707
   198	0.236829	-0.707	0.707
   199	0.254675	-0.707	0.707
   200	0.27584	-0.707	0.707
   201	0.248924	-0.707	0.707
   202	0.268426	-0.707	0.707
   203	0.304549	-0.707	0.707
   204	0.240836	-0.707	0.707
   205	0.281479	-0.707	0.707
   206	0.296451	-0.707	0.707
   207	0.250446	-0.707	0.707
   208	0.270662	-0.707	0.707
   209	0.295413	-0.707	0.707
   210	0.267733	-0.707	0.707
   211	0.27785	-0.707	0.707
   212	0.263426	-0.707	0.707
   213	0.278716	-0.707	0.707
   214	0.276012	-0.707	0.707
   215	0.254479	-0.707	0.707
   216	0.277303	-0.707	0.707
   217	0.25143	-0.707	0.707
   218	0.262672	-0.707	0.707
   219	0.25935	-0.707	0.707
   220	0.307442	-0.707	0.707
   221	0.290252	-0.707	0.707
   222	0.301468	-0.707	0.707
   223	0.218379	-0.707	0.707
   224	0.279984	-0.707	0.707
   225	0.256672	-0.707	0.707
   226	0.258766	-0.707	0.707
   227	0.227521	-0.707	0.707
   228	0.242384	-0.707	0.707
   229	0.240247	-0.707	0.707
   230	0.225512	-0.707	0.707
   231	0.252438	-0.707	0.707
   232	0.252329	-0.707	0.707
   233	0.266291	-0.707	0.707
   234	0.243459	-0.707	0.707
   235	0.276386	-0.707	0.707
   236	0.205826	-0.707	0.707
   237	0.219599	-0.707	0.707
   238	0.263491	-0.707	0.707
   239	0.271801	-0.707	0.707
   240	0.259929	-0.707	0.707
   241	0.269999	-0.707	0.707
   242	0.289339	-0.707	0.707
   243	0.277538	-0.707	0.707
   244	0.249408	-0.707	0.707
   245	0.293854	-0.707	0.707
   246	0.23879	-0.707	0.707
   247	0.262693	-0.707	0.707
   248	0.273146	-0.707	0.707
   249	0.27331	-0.707	0.707
   250	0.296005	-0.707	0.707
   251	0.282464	-0.707	0.707
   252	0.262768	-0.707	0.707
   253	0.254674	-0.707	0.707
   254	0.230032	-0.707	0.707
   255	0.265577	-0.707	0.707
   256	0.260615	-0.707	0.707
   257	0.211772	-0.707	0.707
   258	0.237341	-0.707	0.707
   259	0.275586	-0.707	0.707
   260	0.279575	-0.707	0.707
   261	0.251333	-0.707	0.707
   262	0.317737	-0.707	0.707
   263	0.296804	-0.707	0.707
   264	0.254942	-0.707	0.707
   265	0.215633	-0.707	0.707
   266	0.244664	-0.707	0.707
   267	0.251184	-0.707	0.707
   268	0.243607	-0.707	0.707
   269	0.25663	-0.707	0.707
   270	0.228392	-0.707	0.707
   271	0.300073	-0.707	0.707
   272	0.284985	-0.707	0.707
   273	0.295536	-0.707	0.707
   274	0.24156	-0.707	0.707
   275	0.274305	-0.707	0.707
   276	0.217182	-0.707	0.707
   277	0.254084	-0.707	0.707
   278	0.245192	-0.707	0.707
   279	0.237224	-0.707	0.707
   280	0.287034	-0.707	0.707
   281	0.278134	-0.707	0.707
   282	0.275871	-0.707	0.707
   283	0.248852	-0.707	0.707
   284	0.256698	-0.707	0.707
   285	0.24494	-0.707	0.707
   286	0.261133	-0.707	0.707
   287	0.263895	-0.707	0.707
   288	0.222035	-0.707	0.707
   289	0.259661	-0.707	0.707
   290	0.275895	-0.707	0.707
   291	0.215901	-0.707	0.707
   292	0.222578	-0.707	0.707
   293	0.250076	-0.707	0.707
   294	0.266366	-0.707	0.707
   295	0.214388	-0.707	0.707
   296	0.234421	-0.707	0.707
   297	0.303534	-0.707	0.707
   298	0.251741	-0.707	0.707
   299	0.314676	-0.707	0.707
   300	0.235103	-0.707	0.707
   301	0.264941	-0.707	0.707
   302	0.216382	-0.707	0.707
   303	0.252553	-0.707	0.707
   304	0.262915	-0.707	0.707
   305	0.210657	-0.707	0.707
   306	0.252177	-0.707	0.707
   307	0.250957	-0.707	0.707
   308	0.271942	-0.707	0.707
   309	0.257179	-0.707	0.707
   310	0.258805	-0.707	0.707
   311	0.234889	-0.707	0.707
   312	0.248945	-0.707	0.707
   313	0.28298	-0.707	0.707
   314	0.307199	-0.707	0.707
   315	0.27299	-0.707	0.707
   316	0.263362	-0.707	0.707
   317	0.234712	-0.707	0.707
   318	0.256651	-0.707	0.707
   319	0.188037	-0.707	0.707
   320	0.242998	-0.707	0.707
   321	0.268733	-0.707	0.707
   322	0.260726	-0.707	0.707
   323	0.246819	-0.707	0.707
   324	0.264547	-0.707	0.707
   325	0.28859	-0.707	0.707
   326	0.254195	-0.707	0.707
   327	0.290741	-0.707	0.707
   328	0.305559	-0.707	0.707
   329	0.296596	-0.707	0.707
   330	0.293797	-0.707	0.707
   331	0.250054	-0.707	0.707
   332	0.225539	-0.707	0.707
   333	0.247177	-0.707	0.707
   334	0.255812	-0.707	0.707
   335	0.290996	-0.707	0.707
   336	0.27097	-0.707	0.707
   337	0.291016	-0.707	0.707
   338	0.235146	-0.707	0.707
   339	0.215714	-0.707	0.707
   340	0.253845	-0.707	0.707
   341	0.295647	-0.707	0.707
   342	0.266832	-0.707	0.707
   343	0.26273	-0.707	0.707
   344	0.264172	-0.707	0.707
   345	0.240417	-0.707	0.707
   346	0.269733	-0.707	0.707
   347	0.272702	-0.707	0.707
   348	0.308792	-0.707	0.707
   349	0.23611	-0.707	0.707
   350	0.247282	-0.707	0.707
   351	0.264656	-0.707	0.707
   352	0.240674	-0.707	0.707
   353	0.272624	-0.707	0.707
   354	0.262463	-0.707	0.707
   355	0.249394	-0.707	0.707
   356	0.229889	-0.707	0.707
   357	0.267783	-0.707	0.707
   358	0.290045	-0.707	0.707
   359	0.280633	-0.707	0.707
   360	0.250462	-0.707	0.707
   361	0.182313	-0.707	0.707
   362	0.241985	-0.707	0.707
   363	0.263	-0.707	0.707
   364	0.282242	-0.707	0.707
   365	0.241348	-0.707	0.707
   366	0.243037	-0.707	0.707
   367	0.270344	-0.707	0.707
   368	0.26545	-0.707	0.707
   369	0.277701	-0.707	0.707
   370	0.248921	-0.707	0.707
   371	0.231728	-0.707	0.707
   372	0.241784	-0.707	0.707
   373	0.219435	-0.707	0.707
   374	0.285482	-0.707	0.707
   375	0.271198	-0.707	0.707
   376	0.24889	-0.707	0.707
   377	0.282091	-0.707	0.707
   378	0.274785	-0.707	0.707
   379	0.198588	-0.707	0.707
   380	0.268682	-0.707	0.707
   381	0.291798	-0.707	0.707
   382	0.218904	-0.707	0.707
   383	0.222761	-0.707	0.707
   384	0.254394	-0.707	0.707
   385	0.311397	-0.707	0.707
   386	0.25042	-0.707	0.707
   387	0.280529	-0.707	0.707
   388	0.298841	-0.707	0.707
   389	0.245729	-0.707	0.707
   390	0.282399	-0.707	0.707
   391	0.184271	-0.707	0.707
   392	0.282095	-0.707	0.707
   393	0.238999	-0.707	0.707
   394	0.252415	-0.707	0.707
   395	0.281942	-0.707	0.707
   396	0.224613	-0.707	0.707
   397	0.302704	-0.707	0.707
   398	0.251681	-0.707	0.707
   399	0.254488	-0.707	0.707
   400	0.234484	-0.707	0.707

Measurement: snm_min
  step	MIN(0.707*v(v1)-0.707*v(v2))	FROM	TO
     1	-0.243037	-0.707	0.707
     2	-0.27592	-0.707	0.707
     3	-0.263948	-0.707	0.707
     4	-0.255905	-0.707	0.707
     5	-0.322663	-0.707	0.707
     6	-0.273254	-0.707	0.707
     7	-0.265302	-0.707	0.707
     8	-0.21137	-0.707	0.707
     9	-0.232111	-0.707	0.707
    10	-0.253001	-0.707	0.707
    11	-0.220471	-0.707	0.707
    12	-0.242106	-0.707	0.707
    13	-0.237347	-0.707	0.707
    14	-0.274732	-0.707	0.707
    15	-0.255207	-0.707	0.707
    16	-0.249435	-0.707	0.707
    17	-0.278969	-0.707	0.707
    18	-0.250918	-0.707	0.707
    19	-0.26894	-0.707	0.707
    20	-0.273224	-0.707	0.707
    21	-0.261917	-0.707	0.707
    22	-0.243008	-0.707	0.707
    23	-0.249383	-0.707	0.707
    24	-0.261684	-0.707	0.707
    25	-0.27346	-0.707	0.707
    26	-0.255534	-0.707	0.707
    27	-0.312675	-0.707	0.707
    28	-0.207663	-0.707	0.707
    29	-0.249563	-0.707	0.707
    30	-0.27296	-0.707	0.707
    31	-0.252559	-0.707	0.707
    32	-0.246232	-0.707	0.707
    33	-0.2716	-0.707	0.707
    34	-0.269429	-0.707	0.707
    35	-0.237275	-0.707	0.707
    36	-0.274937	-0.707	0.707
    37	-0.245898	-0.707	0.707
    38	-0.253868	-0.707	0.707
    39	-0.258562	-0.707	0.707
    40	-0.241575	-0.707	0.707
    41	-0.232634	-0.707	0.707
    42	-0.287038	-0.707	0.707
    43	-0.275819	-0.707	0.707
    44	-0.247524	-0.707	0.707
    45	-0.267721	-0.707	0.707
    46	-0.253603	-0.707	0.707
    47	-0.227679	-0.707	0.707
    48	-0.218826	-0.707	0.707
    49	-0.268134	-0.707	0.707
    50	-0.207907	-0.707	0.707
    51	-0.284126	-0.707	0.707
    52	-0.301379	-0.707	0.707
    53	-0.240194	-0.707	0.707
    54	-0.29963	-0.707	0.707
    55	-0.288038	-0.707	0.707
    56	-0.276828	-0.707	0.707
    57	-0.273316	-0.707	0.707
    58	-0.289335	-0.707	0.707
    59	-0.219177	-0.707	0.707
    60	-0.250207	-0.707	0.707
    61	-0.271562	-0.707	0.707
    62	-0.264591	-0.707	0.707
    63	-0.226336	-0.707	0.707
    64	-0.242743	-0.707	0.707
    65	-0.241578	-0.707	0.707
    66	-0.297704	-0.707	0.707
    67	-0.269446	-0.707	0.707
    68	-0.267805	-0.707	0.707
    69	-0.26043	-0.707	0.707
    70	-0.206876	-0.707	0.707
    71	-0.250498	-0.707	0.707
    72	-0.265122	-0.707	0.707
    73	-0.268671	-0.707	0.707
    74	-0.28313	-0.707	0.707
    75	-0.228859	-0.707	0.707
    76	-0.275837	-0.707	0.707
    77	-0.263279	-0.707	0.707
    78	-0.223479	-0.707	0.707
    79	-0.215357	-0.707	0.707
    80	-0.244266	-0.707	0.707
    81	-0.284063	-0.707	0.707
    82	-0.278722	-0.707	0.707
    83	-0.274257	-0.707	0.707
    84	-0.270144	-0.707	0.707
    85	-0.255539	-0.707	0.707
    86	-0.277557	-0.707	0.707
    87	-0.292063	-0.707	0.707
    88	-0.277208	-0.707	0.707
    89	-0.221269	-0.707	0.707
    90	-0.285505	-0.707	0.707
    91	-0.23327	-0.707	0.707
    92	-0.267656	-0.707	0.707
    93	-0.286507	-0.707	0.707
    94	-0.272275	-0.707	0.707
    95	-0.295907	-0.707	0.707
    96	-0.243769	-0.707	0.707
    97	-0.272887	-0.707	0.707
    98	-0.24826	-0.707	0.707
    99	-0.258259	-0.707	0.707
   100	-0.255787	-0.707	0.707
   101	-0.246621	-0.707	0.707
   102	-0.27628	-0.707	0.707
   103	-0.259179	-0.707	0.707
   104	-0.271098	-0.707	0.707
   105	-0.263373	-0.707	0.707
   106	-0.245832	-0.707	0.707
   107	-0.246497	-0.707	0.707
   108	-0.24348	-0.707	0.707
   109	-0.242639	-0.707	0.707
   110	-0.305811	-0.707	0.707
   111	-0.227506	-0.707	0.707
   112	-0.217184	-0.707	0.707
   113	-0.260792	-0.707	0.707
   114	-0.269771	-0.707	0.707
   115	-0.22245	-0.707	0.707
   116	-0.289207	-0.707	0.707
   117	-0.283658	-0.707	0.707
   118	-0.245335	-0.707	0.707
   119	-0.267434	-0.707	0.707
   120	-0.239759	-0.707	0.707
   121	-0.26019	-0.707	0.707
   122	-0.253837	-0.707	0.707
   123	-0.239281	-0.707	0.707
   124	-0.275897	-0.707	0.707
   125	-0.274068	-0.707	0.707
   126	-0.291392	-0.707	0.707
   127	-0.28667	-0.707	0.707
   128	-0.255008	-0.707	0.707
   129	-0.297083	-0.707	0.707
   130	-0.263926	-0.707	0.707
   131	-0.233622	-0.707	0.707
   132	-0.256181	-0.707	0.707
   133	-0.298611	-0.707	0.707
   134	-0.267322	-0.707	0.707
   135	-0.25632	-0.707	0.707
   136	-0.293905	-0.707	0.707
   137	-0.23134	-0.707	0.707
   138	-0.282114	-0.707	0.707
   139	-0.231555	-0.707	0.707
   140	-0.282049	-0.707	0.707
   141	-0.256416	-0.707	0.707
   142	-0.300593	-0.707	0.707
   143	-0.295797	-0.707	0.707
   144	-0.266733	-0.707	0.707
   145	-0.277099	-0.707	0.707
   146	-0.224857	-0.707	0.707
   147	-0.263974	-0.707	0.707
   148	-0.282859	-0.707	0.707
   149	-0.260385	-0.707	0.707
   150	-0.260421	-0.707	0.707
   151	-0.286157	-0.707	0.707
   152	-0.294171	-0.707	0.707
   153	-0.262882	-0.707	0.707
   154	-0.287901	-0.707	0.707
   155	-0.25624	-0.707	0.707
   156	-0.259117	-0.707	0.707
   157	-0.249694	-0.707	0.707
   158	-0.252657	-0.707	0.707
   159	-0.291192	-0.707	0.707
   160	-0.27031	-0.707	0.707
   161	-0.285854	-0.707	0.707
   162	-0.239738	-0.707	0.707
   163	-0.27782	-0.707	0.707
   164	-0.231562	-0.707	0.707
   165	-0.305609	-0.707	0.707
   166	-0.277805	-0.707	0.707
   167	-0.235409	-0.707	0.707
   168	-0.280574	-0.707	0.707
   169	-0.166044	-0.707	0.707
   170	-0.241904	-0.707	0.707
   171	-0.250696	-0.707	0.707
   172	-0.304977	-0.707	0.707
   173	-0.247448	-0.707	0.707
   174	-0.230115	-0.707	0.707
   175	-0.224493	-0.707	0.707
   176	-0.341966	-0.707	0.707
   177	-0.237682	-0.707	0.707
   178	-0.269281	-0.707	0.707
   179	-0.284854	-0.707	0.707
   180	-0.240371	-0.707	0.707
   181	-0.271126	-0.707	0.707
   182	-0.250171	-0.707	0.707
   183	-0.268496	-0.707	0.707
   184	-0.271742	-0.707	0.707
   185	-0.249024	-0.707	0.707
   186	-0.231324	-0.707	0.707
   187	-0.222793	-0.707	0.707
   188	-0.273665	-0.707	0.707
   189	-0.248982	-0.707	0.707
   190	-0.23918	-0.707	0.707
   191	-0.283137	-0.707	0.707
   192	-0.245993	-0.707	0.707
   193	-0.297985	-0.707	0.707
   194	-0.244666	-0.707	0.707
   195	-0.265597	-0.707	0.707
   196	-0.258463	-0.707	0.707
   197	-0.253482	-0.707	0.707
   198	-0.236803	-0.707	0.707
   199	-0.254706	-0.707	0.707
   200	-0.275859	-0.707	0.707
   201	-0.248945	-0.707	0.707
   202	-0.268405	-0.707	0.707
   203	-0.304568	-0.707	0.707
   204	-0.240797	-0.707	0.707
   205	-0.281516	-0.707	0.707
   206	-0.296437	-0.707	0.707
   207	-0.250442	-0.707	0.707
   208	-0.270646	-0.707	0.707
   209	-0.295412	-0.707	0.707
   210	-0.267702	-0.707	0.707
   211	-0.277847	-0.707	0.707
   212	-0.263389	-0.707	0.707
   213	-0.278723	-0.707	0.707
   214	-0.275984	-0.707	0.707
   215	-0.25451	-0.707	0.707
   216	-0.277273	-0.707	0.707
   217	-0.251401	-0.707	0.707
   218	-0.262673	-0.707	0.707
   219	-0.259393	-0.707	0.707
   220	-0.307422	-0.707	0.707
   221	-0.290296	-0.707	0.707
   222	-0.301481	-0.707	0.707
   223	-0.218363	-0.707	0.707
   224	-0.279992	-0.707	0.707
   225	-0.256681	-0.707	0.707
   226	-0.25874	-0.707	0.707
   227	-0.22755	-0.707	0.707
   228	-0.242363	-0.707	0.707
   229	-0.240234	-0.707	0.707
   230	-0.225478	-0.707	0.707
   231	-0.25244	-0.707	0.707
   232	-0.252333	-0.707	0.707
   233	-0.26629	-0.707	0.707
   234	-0.24344	-0.707	0.707
   235	-0.276426	-0.707	0.707
   236	-0.205829	-0.707	0.707
   237	-0.21961	-0.707	0.707
   238	-0.263494	-0.707	0.707
   239	-0.27178	-0.707	0.707
   240	-0.259933	-0.707	0.707
   241	-0.270029	-0.707	0.707
   242	-0.289303	-0.707	0.707
   243	-0.277561	-0.707	0.707
   244	-0.249376	-0.707	0.707
   245	-0.293885	-0.707	0.707
   246	-0.238765	-0.707	0.707
   247	-0.262663	-0.707	0.707
   248	-0.273184	-0.707	0.707
   249	-0.273266	-0.707	0.707
   250	-0.29601	-0.707	0.707
   251	-0.282503	-0.707	0.707
   252	-0.262745	-0.707	0.707
   253	-0.254691	-0.707	0.707
   254	-0.230057	-0.707	0.707
   255	-0.265553	-0.707	0.707
   256	-0.260652	-0.707	0.707
   257	-0.211773	-0.707	0.707
   258	-0.237319	-0.707	0.707
   259	-0.275549	-0.707	0.707
   260	-0.279618	-0.707	0.707
   261	-0.251361	-0.707	0.707
   262	-0.317692	-0.707	0.707
   263	-0.296745	-0.707	0.707
   264	-0.25492	-0.707	0.707
   265	-0.215645	-0.707	0.707
   266	-0.244629	-0.707	0.707
   267	-0.251153	-0.707	0.707
   268	-0.243619	-0.707	0.707
   269	-0.256633	-0.707	0.707
   270	-0.228386	-0.707	0.707
   271	-0.300097	-0.707	0.707
   272	-0.28499	-0.707	0.707
   273	-0.295526	-0.707	0.707
   274	-0.241542	-0.707	0.707
   275	-0.274344	-0.707	0.707
   276	-0.217212	-0.707	0.707
   277	-0.254089	-0.707	0.707
   278	-0.245213	-0.707	0.707
   279	-0.237203	-0.707	0.707
   280	-0.287027	-0.707	0.707
   281	-0.27817	-0.707	0.707
   282	-0.2759	-0.707	0.707
   283	-0.248829	-0.707	0.707
   284	-0.256676	-0.707	0.707
   285	-0.244939	-0.707	0.707
   286	-0.261091	-0.707	0.707
   287	-0.263889	-0.707	0.707
   288	-0.222069	-0.707	0.707
   289	-0.259669	-0.707	0.707
   290	-0.275933	-0.707	0.707
   291	-0.215882	-0.707	0.707
   292	-0.222567	-0.707	0.707
   293	-0.250038	-0.707	0.707
   294	-0.266323	-0.707	0.707
   295	-0.214368	-0.707	0.707
   296	-0.234384	-0.707	0.707
   297	-0.30351	-0.707	0.707
   298	-0.251771	-0.707	0.707
   299	-0.314702	-0.707	0.707
   300	-0.235132	-0.707	0.707
   301	-0.264902	-0.707	0.707
   302	-0.216393	-0.707	0.707
   303	-0.252576	-0.707	0.707
   304	-0.262936	-0.707	0.707
   305	-0.210689	-0.707	0.707
   306	-0.252142	-0.707	0.707
   307	-0.250964	-0.707	0.707
   308	-0.271904	-0.707	0.707
   309	-0.257155	-0.707	0.707
   310	-0.258818	-0.707	0.707
   311	-0.23489	-0.707	0.707
   312	-0.24897	-0.707	0.707
   313	-0.282964	-0.707	0.707
   314	-0.307159	-0.707	0.707
   315	-0.272981	-0.707	0.707
   316	-0.263334	-0.707	0.707
   317	-0.23473	-0.707	0.707
   318	-0.256652	-0.707	0.707
   319	-0.188012	-0.707	0.707
   320	-0.24299	-0.707	0.707
   321	-0.26877	-0.707	0.707
   322	-0.260755	-0.707	0.707
   323	-0.246837	-0.707	0.707
   324	-0.264537	-0.707	0.707
   325	-0.288579	-0.707	0.707
   326	-0.254198	-0.707	0.707
   327	-0.290782	-0.707	0.707
   328	-0.305499	-0.707	0.707
   329	-0.296623	-0.707	0.707
   330	-0.293807	-0.707	0.707
   331	-0.250078	-0.707	0.707
   332	-0.225561	-0.707	0.707
   333	-0.247194	-0.707	0.707
   334	-0.255773	-0.707	0.707
   335	-0.290955	-0.707	0.707
   336	-0.270999	-0.707	0.707
   337	-0.29102	-0.707	0.707
   338	-0.235155	-0.707	0.707
   339	-0.215726	-0.707	0.707
   340	-0.25382	-0.707	0.707
   341	-0.295664	-0.707	0.707
   342	-0.266843	-0.707	0.707
   343	-0.262711	-0.707	0.707
   344	-0.26418	-0.707	0.707
   345	-0.240416	-0.707	0.707
   346	-0.269726	-0.707	0.707
   347	-0.272675	-0.707	0.707
   348	-0.308848	-0.707	0.707
   349	-0.236099	-0.707	0.707
   350	-0.247297	-0.707	0.707
   351	-0.264677	-0.707	0.707
   352	-0.240641	-0.707	0.707
   353	-0.272671	-0.707	0.707
   354	-0.262426	-0.707	0.707
   355	-0.2494	-0.707	0.707
   356	-0.229897	-0.707	0.707
   357	-0.267786	-0.707	0.707
   358	-0.290088	-0.707	0.707
   359	-0.280634	-0.707	0.707
   360	-0.250494	-0.707	0.707
   361	-0.182286	-0.707	0.707
   362	-0.24197	-0.707	0.707
   363	-0.263026	-0.707	0.707
   364	-0.282253	-0.707	0.707
   365	-0.241377	-0.707	0.707
   366	-0.24304	-0.707	0.707
   367	-0.270383	-0.707	0.707
   368	-0.265494	-0.707	0.707
   369	-0.277664	-0.707	0.707
   370	-0.248914	-0.707	0.707
   371	-0.231728	-0.707	0.707
   372	-0.24177	-0.707	0.707
   373	-0.219442	-0.707	0.707
   374	-0.285526	-0.707	0.707
   375	-0.271152	-0.707	0.707
   376	-0.248893	-0.707	0.707
   377	-0.282136	-0.707	0.707
   378	-0.274795	-0.707	0.707
   379	-0.198608	-0.707	0.707
   380	-0.268715	-0.707	0.707
   381	-0.291773	-0.707	0.707
   382	-0.218911	-0.707	0.707
   383	-0.222728	-0.707	0.707
   384	-0.254383	-0.707	0.707
   385	-0.311391	-0.707	0.707
   386	-0.25042	-0.707	0.707
   387	-0.280485	-0.707	0.707
   388	-0.298826	-0.707	0.707
   389	-0.245698	-0.707	0.707
   390	-0.282426	-0.707	0.707
   391	-0.184259	-0.707	0.707
   392	-0.28213	-0.707	0.707
   393	-0.238984	-0.707	0.707
   394	-0.252385	-0.707	0.707
   395	-0.281958	-0.707	0.707
   396	-0.224609	-0.707	0.707
   397	-0.302669	-0.707	0.707
   398	-0.25172	-0.707	0.707
   399	-0.254523	-0.707	0.707
   400	-0.234503	-0.707	0.707


Date: Thu Nov 30 10:17:29 2023
Total elapsed time: 24.099 seconds.

tnom = 27
temp = 27
method = trap
totiter = 299
traniter = 0
tranpoints = 0
accept = 0
rejected = 0
matrix size = 33
fillins = 28
solver = Normal
Avg thread counts: 6.9/0.0/8.0/6.9
Matrix Compiler1: 2.20 KB object code size  0.6/0.4/[0.3]
Matrix Compiler2: 2.77 KB object code size  0.3/0.5/[0.1]

