Circuit: * D:\Disco D\universita\magistrale\progettazione-low-power\progetti\progetto-2\ltspice\models\gaussian-vth\hold\gaussian_vth_hold.asc

WARNING: Node NC_01 is floating.
WARNING: Node NC_02 is floating.
WARNING: Node NC_03 is floating.
WARNING: Node NC_04 is floating.
WARNING: Node NC_05 is floating.

WARNING: Less than two connections to node nc_01.  This node is used by vsweep.
WARNING: Less than two connections to node nc_02.  This node is used by e2.
WARNING: Less than two connections to node nc_03.  This node is used by e8.
WARNING: Less than two connections to node nc_04.  This node is used by m5.
WARNING: Less than two connections to node nc_05.  This node is used by m6.
Warning: Pd = 0 is less than W.
Warning: Ps = 0 is less than W.
Warning: Pd = 0 is less than W.
Warning: Ps = 0 is less than W.
Warning: Pd = 0 is less than W.
Warning: Ps = 0 is less than W.
.step run=1
.step run=2
.step run=3
.step run=4
.step run=5
.step run=6
.step run=7
.step run=8
.step run=9
.step run=10
.step run=11
.step run=12
.step run=13
.step run=14
.step run=15
.step run=16
.step run=17
.step run=18
.step run=19
.step run=20
.step run=21
.step run=22
.step run=23
.step run=24
.step run=25
.step run=26
.step run=27
.step run=28
.step run=29
.step run=30
.step run=31
.step run=32
.step run=33
.step run=34
.step run=35
.step run=36
.step run=37
.step run=38
.step run=39
.step run=40
.step run=41
.step run=42
.step run=43
.step run=44
.step run=45
.step run=46
.step run=47
.step run=48
.step run=49
.step run=50
.step run=51
.step run=52
.step run=53
.step run=54
.step run=55
.step run=56
.step run=57
.step run=58
.step run=59
.step run=60
.step run=61
.step run=62
.step run=63
.step run=64
.step run=65
.step run=66
.step run=67
.step run=68
.step run=69
.step run=70
.step run=71
.step run=72
.step run=73
.step run=74
.step run=75
.step run=76
.step run=77
.step run=78
.step run=79
.step run=80
.step run=81
.step run=82
.step run=83
.step run=84
.step run=85
.step run=86
.step run=87
.step run=88
.step run=89
.step run=90
.step run=91
.step run=92
.step run=93
.step run=94
.step run=95
.step run=96
.step run=97
.step run=98
.step run=99
.step run=100
.step run=101
.step run=102
.step run=103
.step run=104
.step run=105
.step run=106
.step run=107
.step run=108
.step run=109
.step run=110
.step run=111
.step run=112
.step run=113
.step run=114
.step run=115
.step run=116
.step run=117
.step run=118
.step run=119
.step run=120
.step run=121
.step run=122
.step run=123
.step run=124
.step run=125
.step run=126
.step run=127
.step run=128
.step run=129
.step run=130
.step run=131
.step run=132
.step run=133
.step run=134
.step run=135
.step run=136
.step run=137
.step run=138
.step run=139
.step run=140
.step run=141
.step run=142
.step run=143
.step run=144
.step run=145
.step run=146
.step run=147
.step run=148
.step run=149
.step run=150
.step run=151
.step run=152
.step run=153
.step run=154
.step run=155
.step run=156
.step run=157
.step run=158
.step run=159
.step run=160
.step run=161
.step run=162
.step run=163
.step run=164
.step run=165
.step run=166
.step run=167
.step run=168
.step run=169
.step run=170
.step run=171
.step run=172
.step run=173
.step run=174
.step run=175
.step run=176
.step run=177
.step run=178
.step run=179
.step run=180
.step run=181
.step run=182
.step run=183
.step run=184
.step run=185
.step run=186
.step run=187
.step run=188
.step run=189
.step run=190
.step run=191
.step run=192
.step run=193
.step run=194
.step run=195
.step run=196
.step run=197
.step run=198
.step run=199
.step run=200
.step run=201
.step run=202
.step run=203
.step run=204
.step run=205
.step run=206
.step run=207
.step run=208
.step run=209
.step run=210
.step run=211
.step run=212
.step run=213
.step run=214
.step run=215
.step run=216
.step run=217
.step run=218
.step run=219
.step run=220
.step run=221
.step run=222
.step run=223
.step run=224
.step run=225
.step run=226
.step run=227
.step run=228
.step run=229
.step run=230
.step run=231
.step run=232
.step run=233
.step run=234
.step run=235
.step run=236
.step run=237
.step run=238
.step run=239
.step run=240
.step run=241
.step run=242
.step run=243
.step run=244
.step run=245
.step run=246
.step run=247
.step run=248
.step run=249
.step run=250
.step run=251
.step run=252
.step run=253
.step run=254
.step run=255
.step run=256
.step run=257
.step run=258
.step run=259
.step run=260
.step run=261
.step run=262
.step run=263
.step run=264
.step run=265
.step run=266
.step run=267
.step run=268
.step run=269
.step run=270
.step run=271
.step run=272
.step run=273
.step run=274
.step run=275
.step run=276
.step run=277
.step run=278
.step run=279
.step run=280
.step run=281
.step run=282
.step run=283
.step run=284
.step run=285
.step run=286
.step run=287
.step run=288
.step run=289
.step run=290
.step run=291
.step run=292
.step run=293
.step run=294
.step run=295
.step run=296
.step run=297
.step run=298
.step run=299
.step run=300
.step run=301
.step run=302
.step run=303
.step run=304
.step run=305
.step run=306
.step run=307
.step run=308
.step run=309
.step run=310
.step run=311
.step run=312
.step run=313
.step run=314
.step run=315
.step run=316
.step run=317
.step run=318
.step run=319
.step run=320
.step run=321
.step run=322
.step run=323
.step run=324
.step run=325
.step run=326
.step run=327
.step run=328
.step run=329
.step run=330
.step run=331
.step run=332
.step run=333
.step run=334
.step run=335
.step run=336
.step run=337
.step run=338
.step run=339
.step run=340
.step run=341
.step run=342
.step run=343
.step run=344
.step run=345
.step run=346
.step run=347
.step run=348
.step run=349
.step run=350
.step run=351
.step run=352
.step run=353
.step run=354
.step run=355
.step run=356
.step run=357
.step run=358
.step run=359
.step run=360
.step run=361
.step run=362
.step run=363
.step run=364
.step run=365
.step run=366
.step run=367
.step run=368
.step run=369
.step run=370
.step run=371
.step run=372
.step run=373
.step run=374
.step run=375
.step run=376
.step run=377
.step run=378
.step run=379
.step run=380
.step run=381
.step run=382
.step run=383
.step run=384
.step run=385
.step run=386
.step run=387
.step run=388
.step run=389
.step run=390
.step run=391
.step run=392
.step run=393
.step run=394
.step run=395
.step run=396
.step run=397
.step run=398
.step run=399
.step run=400


Measurement: snm_max
  step	MAX(0.707*v(v1)-0.707*v(v2))	FROM	TO
     1	0.243037	-0.707	0.707
     2	0.27592	-0.707	0.707
     3	0.26392	-0.707	0.707
     4	0.25589	-0.707	0.707
     5	0.322741	-0.707	0.707
     6	0.273245	-0.707	0.707
     7	0.265312	-0.707	0.707
     8	0.211333	-0.707	0.707
     9	0.232072	-0.707	0.707
    10	0.252984	-0.707	0.707
    11	0.220429	-0.707	0.707
    12	0.242138	-0.707	0.707
    13	0.237374	-0.707	0.707
    14	0.274747	-0.707	0.707
    15	0.255247	-0.707	0.707
    16	0.249444	-0.707	0.707
    17	0.279	-0.707	0.707
    18	0.250884	-0.707	0.707
    19	0.268957	-0.707	0.707
    20	0.273216	-0.707	0.707
    21	0.261914	-0.707	0.707
    22	0.243041	-0.707	0.707
    23	0.249344	-0.707	0.707
    24	0.261685	-0.707	0.707
    25	0.273493	-0.707	0.707
    26	0.255571	-0.707	0.707
    27	0.312729	-0.707	0.707
    28	0.207671	-0.707	0.707
    29	0.2496	-0.707	0.707
    30	0.272972	-0.707	0.707
    31	0.25259	-0.707	0.707
    32	0.246258	-0.707	0.707
    33	0.271632	-0.707	0.707
    34	0.269401	-0.707	0.707
    35	0.237305	-0.707	0.707
    36	0.274956	-0.707	0.707
    37	0.245896	-0.707	0.707
    38	0.253839	-0.707	0.707
    39	0.258602	-0.707	0.707
    40	0.24159	-0.707	0.707
    41	0.232636	-0.707	0.707
    42	0.287076	-0.707	0.707
    43	0.275773	-0.707	0.707
    44	0.247489	-0.707	0.707
    45	0.267689	-0.707	0.707
    46	0.25359	-0.707	0.707
    47	0.227653	-0.707	0.707
    48	0.218785	-0.707	0.707
    49	0.268179	-0.707	0.707
    50	0.207916	-0.707	0.707
    51	0.284136	-0.707	0.707
    52	0.301368	-0.707	0.707
    53	0.240204	-0.707	0.707
    54	0.299653	-0.707	0.707
    55	0.288074	-0.707	0.707
    56	0.276855	-0.707	0.707
    57	0.273338	-0.707	0.707
    58	0.289364	-0.707	0.707
    59	0.2192	-0.707	0.707
    60	0.250183	-0.707	0.707
    61	0.2716	-0.707	0.707
    62	0.264552	-0.707	0.707
    63	0.226343	-0.707	0.707
    64	0.242739	-0.707	0.707
    65	0.241584	-0.707	0.707
    66	0.297646	-0.707	0.707
    67	0.269416	-0.707	0.707
    68	0.267771	-0.707	0.707
    69	0.260424	-0.707	0.707
    70	0.206887	-0.707	0.707
    71	0.250486	-0.707	0.707
    72	0.265134	-0.707	0.707
    73	0.268683	-0.707	0.707
    74	0.283118	-0.707	0.707
    75	0.228837	-0.707	0.707
    76	0.275822	-0.707	0.707
    77	0.263302	-0.707	0.707
    78	0.223481	-0.707	0.707
    79	0.215313	-0.707	0.707
    80	0.244285	-0.707	0.707
    81	0.284107	-0.707	0.707
    82	0.278751	-0.707	0.707
    83	0.274221	-0.707	0.707
    84	0.27015	-0.707	0.707
    85	0.255529	-0.707	0.707
    86	0.277539	-0.707	0.707
    87	0.292092	-0.707	0.707
    88	0.277171	-0.707	0.707
    89	0.221264	-0.707	0.707
    90	0.285544	-0.707	0.707
    91	0.233228	-0.707	0.707
    92	0.267638	-0.707	0.707
    93	0.286504	-0.707	0.707
    94	0.272249	-0.707	0.707
    95	0.295961	-0.707	0.707
    96	0.243786	-0.707	0.707
    97	0.272843	-0.707	0.707
    98	0.248235	-0.707	0.707
    99	0.258221	-0.707	0.707
   100	0.255828	-0.707	0.707
   101	0.246593	-0.707	0.707
   102	0.276274	-0.707	0.707
   103	0.259135	-0.707	0.707
   104	0.271074	-0.707	0.707
   105	0.263366	-0.707	0.707
   106	0.245803	-0.707	0.707
   107	0.246525	-0.707	0.707
   108	0.243505	-0.707	0.707
   109	0.242613	-0.707	0.707
   110	0.305864	-0.707	0.707
   111	0.22752	-0.707	0.707
   112	0.21718	-0.707	0.707
   113	0.260803	-0.707	0.707
   114	0.269814	-0.707	0.707
   115	0.222413	-0.707	0.707
   116	0.289209	-0.707	0.707
   117	0.283617	-0.707	0.707
   118	0.245313	-0.707	0.707
   119	0.267452	-0.707	0.707
   120	0.23975	-0.707	0.707
   121	0.260203	-0.707	0.707
   122	0.253845	-0.707	0.707
   123	0.23926	-0.707	0.707
   124	0.275905	-0.707	0.707
   125	0.274026	-0.707	0.707
   126	0.291398	-0.707	0.707
   127	0.286684	-0.707	0.707
   128	0.254977	-0.707	0.707
   129	0.297098	-0.707	0.707
   130	0.263946	-0.707	0.707
   131	0.233625	-0.707	0.707
   132	0.256159	-0.707	0.707
   133	0.298602	-0.707	0.707
   134	0.267326	-0.707	0.707
   135	0.256336	-0.707	0.707
   136	0.293928	-0.707	0.707
   137	0.231318	-0.707	0.707
   138	0.282105	-0.707	0.707
   139	0.231538	-0.707	0.707
   140	0.282096	-0.707	0.707
   141	0.256457	-0.707	0.707
   142	0.300565	-0.707	0.707
   143	0.295843	-0.707	0.707
   144	0.266722	-0.707	0.707
   145	0.277137	-0.707	0.707
   146	0.224851	-0.707	0.707
   147	0.263976	-0.707	0.707
   148	0.282845	-0.707	0.707
   149	0.260422	-0.707	0.707
   150	0.260377	-0.707	0.707
   151	0.286145	-0.707	0.707
   152	0.294223	-0.707	0.707
   153	0.262862	-0.707	0.707
   154	0.28792	-0.707	0.707
   155	0.256252	-0.707	0.707
   156	0.259117	-0.707	0.707
   157	0.249691	-0.707	0.707
   158	0.252613	-0.707	0.707
   159	0.291226	-0.707	0.707
   160	0.270315	-0.707	0.707
   161	0.285876	-0.707	0.707
   162	0.239735	-0.707	0.707
   163	0.277842	-0.707	0.707
   164	0.231572	-0.707	0.707
   165	0.30558	-0.707	0.707
   166	0.277774	-0.707	0.707
   167	0.235439	-0.707	0.707
   168	0.28055	-0.707	0.707
   169	0.165919	-0.707	0.707
   170	0.241927	-0.707	0.707
   171	0.250681	-0.707	0.707
   172	0.305017	-0.707	0.707
   173	0.247465	-0.707	0.707
   174	0.230101	-0.707	0.707
   175	0.224496	-0.707	0.707
   176	0.34193	-0.707	0.707
   177	0.237687	-0.707	0.707
   178	0.269309	-0.707	0.707
   179	0.284822	-0.707	0.707
   180	0.240393	-0.707	0.707
   181	0.27116	-0.707	0.707
   182	0.250131	-0.707	0.707
   183	0.268448	-0.707	0.707
   184	0.271746	-0.707	0.707
   185	0.249044	-0.707	0.707
   186	0.231292	-0.707	0.707
   187	0.222785	-0.707	0.707
   188	0.273656	-0.707	0.707
   189	0.248978	-0.707	0.707
   190	0.239178	-0.707	0.707
   191	0.283097	-0.707	0.707
   192	0.246018	-0.707	0.707
   193	0.297937	-0.707	0.707
   194	0.244666	-0.707	0.707
   195	0.265614	-0.707	0.707
   196	0.258452	-0.707	0.707
   197	0.25352	-0.707	0.707
   198	0.236825	-0.707	0.707
   199	0.254673	-0.707	0.707
   200	0.275839	-0.707	0.707
   201	0.248921	-0.707	0.707
   202	0.268425	-0.707	0.707
   203	0.304549	-0.707	0.707
   204	0.240832	-0.707	0.707
   205	0.281479	-0.707	0.707
   206	0.296451	-0.707	0.707
   207	0.250444	-0.707	0.707
   208	0.270661	-0.707	0.707
   209	0.295413	-0.707	0.707
   210	0.267732	-0.707	0.707
   211	0.277849	-0.707	0.707
   212	0.263424	-0.707	0.707
   213	0.278716	-0.707	0.707
   214	0.276011	-0.707	0.707
   215	0.254477	-0.707	0.707
   216	0.277302	-0.707	0.707
   217	0.251427	-0.707	0.707
   218	0.262671	-0.707	0.707
   219	0.259348	-0.707	0.707
   220	0.307442	-0.707	0.707
   221	0.290252	-0.707	0.707
   222	0.301468	-0.707	0.707
   223	0.218371	-0.707	0.707
   224	0.279984	-0.707	0.707
   225	0.25667	-0.707	0.707
   226	0.258763	-0.707	0.707
   227	0.227515	-0.707	0.707
   228	0.24238	-0.707	0.707
   229	0.240243	-0.707	0.707
   230	0.225504	-0.707	0.707
   231	0.252436	-0.707	0.707
   232	0.252327	-0.707	0.707
   233	0.26629	-0.707	0.707
   234	0.243456	-0.707	0.707
   235	0.276385	-0.707	0.707
   236	0.205803	-0.707	0.707
   237	0.219588	-0.707	0.707
   238	0.26349	-0.707	0.707
   239	0.2718	-0.707	0.707
   240	0.259927	-0.707	0.707
   241	0.269999	-0.707	0.707
   242	0.289339	-0.707	0.707
   243	0.277537	-0.707	0.707
   244	0.249405	-0.707	0.707
   245	0.293854	-0.707	0.707
   246	0.238787	-0.707	0.707
   247	0.262692	-0.707	0.707
   248	0.273145	-0.707	0.707
   249	0.27331	-0.707	0.707
   250	0.296005	-0.707	0.707
   251	0.282464	-0.707	0.707
   252	0.262767	-0.707	0.707
   253	0.254672	-0.707	0.707
   254	0.230026	-0.707	0.707
   255	0.265575	-0.707	0.707
   256	0.260613	-0.707	0.707
   257	0.211757	-0.707	0.707
   258	0.237337	-0.707	0.707
   259	0.275585	-0.707	0.707
   260	0.279575	-0.707	0.707
   261	0.251331	-0.707	0.707
   262	0.317737	-0.707	0.707
   263	0.296803	-0.707	0.707
   264	0.254941	-0.707	0.707
   265	0.215621	-0.707	0.707
   266	0.244661	-0.707	0.707
   267	0.251181	-0.707	0.707
   268	0.243604	-0.707	0.707
   269	0.256628	-0.707	0.707
   270	0.228385	-0.707	0.707
   271	0.300073	-0.707	0.707
   272	0.284985	-0.707	0.707
   273	0.295535	-0.707	0.707
   274	0.241556	-0.707	0.707
   275	0.274304	-0.707	0.707
   276	0.217169	-0.707	0.707
   277	0.254082	-0.707	0.707
   278	0.245189	-0.707	0.707
   279	0.23722	-0.707	0.707
   280	0.287034	-0.707	0.707
   281	0.278133	-0.707	0.707
   282	0.27587	-0.707	0.707
   283	0.248849	-0.707	0.707
   284	0.256696	-0.707	0.707
   285	0.244937	-0.707	0.707
   286	0.261131	-0.707	0.707
   287	0.263894	-0.707	0.707
   288	0.222029	-0.707	0.707
   289	0.25966	-0.707	0.707
   290	0.275894	-0.707	0.707
   291	0.21589	-0.707	0.707
   292	0.22257	-0.707	0.707
   293	0.250073	-0.707	0.707
   294	0.266365	-0.707	0.707
   295	0.214377	-0.707	0.707
   296	0.234417	-0.707	0.707
   297	0.303534	-0.707	0.707
   298	0.251739	-0.707	0.707
   299	0.314676	-0.707	0.707
   300	0.235097	-0.707	0.707
   301	0.26494	-0.707	0.707
   302	0.21637	-0.707	0.707
   303	0.252551	-0.707	0.707
   304	0.262913	-0.707	0.707
   305	0.210642	-0.707	0.707
   306	0.252175	-0.707	0.707
   307	0.250955	-0.707	0.707
   308	0.271941	-0.707	0.707
   309	0.257177	-0.707	0.707
   310	0.258803	-0.707	0.707
   311	0.234884	-0.707	0.707
   312	0.248942	-0.707	0.707
   313	0.282979	-0.707	0.707
   314	0.307199	-0.707	0.707
   315	0.27299	-0.707	0.707
   316	0.263361	-0.707	0.707
   317	0.234706	-0.707	0.707
   318	0.25665	-0.707	0.707
   319	0.187995	-0.707	0.707
   320	0.242995	-0.707	0.707
   321	0.268732	-0.707	0.707
   322	0.260725	-0.707	0.707
   323	0.246817	-0.707	0.707
   324	0.264546	-0.707	0.707
   325	0.28859	-0.707	0.707
   326	0.254193	-0.707	0.707
   327	0.290741	-0.707	0.707
   328	0.305559	-0.707	0.707
   329	0.296595	-0.707	0.707
   330	0.293797	-0.707	0.707
   331	0.250052	-0.707	0.707
   332	0.225532	-0.707	0.707
   333	0.247174	-0.707	0.707
   334	0.255811	-0.707	0.707
   335	0.290995	-0.707	0.707
   336	0.270969	-0.707	0.707
   337	0.291015	-0.707	0.707
   338	0.235141	-0.707	0.707
   339	0.215702	-0.707	0.707
   340	0.253842	-0.707	0.707
   341	0.295647	-0.707	0.707
   342	0.26683	-0.707	0.707
   343	0.262729	-0.707	0.707
   344	0.264171	-0.707	0.707
   345	0.240413	-0.707	0.707
   346	0.269733	-0.707	0.707
   347	0.272701	-0.707	0.707
   348	0.308792	-0.707	0.707
   349	0.236104	-0.707	0.707
   350	0.24728	-0.707	0.707
   351	0.264655	-0.707	0.707
   352	0.24067	-0.707	0.707
   353	0.272623	-0.707	0.707
   354	0.262462	-0.707	0.707
   355	0.249392	-0.707	0.707
   356	0.229884	-0.707	0.707
   357	0.267782	-0.707	0.707
   358	0.290044	-0.707	0.707
   359	0.280633	-0.707	0.707
   360	0.25046	-0.707	0.707
   361	0.182265	-0.707	0.707
   362	0.241981	-0.707	0.707
   363	0.262998	-0.707	0.707
   364	0.282242	-0.707	0.707
   365	0.241343	-0.707	0.707
   366	0.243033	-0.707	0.707
   367	0.270343	-0.707	0.707
   368	0.26545	-0.707	0.707
   369	0.277701	-0.707	0.707
   370	0.248919	-0.707	0.707
   371	0.231723	-0.707	0.707
   372	0.241781	-0.707	0.707
   373	0.219424	-0.707	0.707
   374	0.285482	-0.707	0.707
   375	0.271198	-0.707	0.707
   376	0.248888	-0.707	0.707
   377	0.282091	-0.707	0.707
   378	0.274784	-0.707	0.707
   379	0.19856	-0.707	0.707
   380	0.268681	-0.707	0.707
   381	0.291797	-0.707	0.707
   382	0.218893	-0.707	0.707
   383	0.222752	-0.707	0.707
   384	0.254393	-0.707	0.707
   385	0.311397	-0.707	0.707
   386	0.250418	-0.707	0.707
   387	0.280528	-0.707	0.707
   388	0.298841	-0.707	0.707
   389	0.245726	-0.707	0.707
   390	0.282398	-0.707	0.707
   391	0.184227	-0.707	0.707
   392	0.282095	-0.707	0.707
   393	0.238995	-0.707	0.707
   394	0.252413	-0.707	0.707
   395	0.281941	-0.707	0.707
   396	0.224606	-0.707	0.707
   397	0.302704	-0.707	0.707
   398	0.251679	-0.707	0.707
   399	0.254486	-0.707	0.707
   400	0.234479	-0.707	0.707

Measurement: snm_min
  step	MIN(0.707*v(v1)-0.707*v(v2))	FROM	TO
     1	-0.243032	-0.707	0.707
     2	-0.275919	-0.707	0.707
     3	-0.263946	-0.707	0.707
     4	-0.255904	-0.707	0.707
     5	-0.322663	-0.707	0.707
     6	-0.273254	-0.707	0.707
     7	-0.265301	-0.707	0.707
     8	-0.211355	-0.707	0.707
     9	-0.232105	-0.707	0.707
    10	-0.252999	-0.707	0.707
    11	-0.220459	-0.707	0.707
    12	-0.242103	-0.707	0.707
    13	-0.237343	-0.707	0.707
    14	-0.274731	-0.707	0.707
    15	-0.255205	-0.707	0.707
    16	-0.249433	-0.707	0.707
    17	-0.278968	-0.707	0.707
    18	-0.250916	-0.707	0.707
    19	-0.268939	-0.707	0.707
    20	-0.273223	-0.707	0.707
    21	-0.261915	-0.707	0.707
    22	-0.243005	-0.707	0.707
    23	-0.249381	-0.707	0.707
    24	-0.261683	-0.707	0.707
    25	-0.27346	-0.707	0.707
    26	-0.255532	-0.707	0.707
    27	-0.312675	-0.707	0.707
    28	-0.207645	-0.707	0.707
    29	-0.24956	-0.707	0.707
    30	-0.272959	-0.707	0.707
    31	-0.252557	-0.707	0.707
    32	-0.246229	-0.707	0.707
    33	-0.271599	-0.707	0.707
    34	-0.269428	-0.707	0.707
    35	-0.237271	-0.707	0.707
    36	-0.274936	-0.707	0.707
    37	-0.245896	-0.707	0.707
    38	-0.253866	-0.707	0.707
    39	-0.258561	-0.707	0.707
    40	-0.241571	-0.707	0.707
    41	-0.232628	-0.707	0.707
    42	-0.287037	-0.707	0.707
    43	-0.275818	-0.707	0.707
    44	-0.247522	-0.707	0.707
    45	-0.26772	-0.707	0.707
    46	-0.2536	-0.707	0.707
    47	-0.227672	-0.707	0.707
    48	-0.218819	-0.707	0.707
    49	-0.268133	-0.707	0.707
    50	-0.207889	-0.707	0.707
    51	-0.284126	-0.707	0.707
    52	-0.301379	-0.707	0.707
    53	-0.24019	-0.707	0.707
    54	-0.299629	-0.707	0.707
    55	-0.288038	-0.707	0.707
    56	-0.276828	-0.707	0.707
    57	-0.273315	-0.707	0.707
    58	-0.289334	-0.707	0.707
    59	-0.219168	-0.707	0.707
    60	-0.250205	-0.707	0.707
    61	-0.271561	-0.707	0.707
    62	-0.26459	-0.707	0.707
    63	-0.226327	-0.707	0.707
    64	-0.24274	-0.707	0.707
    65	-0.241574	-0.707	0.707
    66	-0.297703	-0.707	0.707
    67	-0.269444	-0.707	0.707
    68	-0.267804	-0.707	0.707
    69	-0.260428	-0.707	0.707
    70	-0.206858	-0.707	0.707
    71	-0.250496	-0.707	0.707
    72	-0.265121	-0.707	0.707
    73	-0.26867	-0.707	0.707
    74	-0.283129	-0.707	0.707
    75	-0.228854	-0.707	0.707
    76	-0.275836	-0.707	0.707
    77	-0.263277	-0.707	0.707
    78	-0.223472	-0.707	0.707
    79	-0.215344	-0.707	0.707
    80	-0.244263	-0.707	0.707
    81	-0.284063	-0.707	0.707
    82	-0.278721	-0.707	0.707
    83	-0.274256	-0.707	0.707
    84	-0.270143	-0.707	0.707
    85	-0.255537	-0.707	0.707
    86	-0.277557	-0.707	0.707
    87	-0.292063	-0.707	0.707
    88	-0.277207	-0.707	0.707
    89	-0.221259	-0.707	0.707
    90	-0.285505	-0.707	0.707
    91	-0.233265	-0.707	0.707
    92	-0.267655	-0.707	0.707
    93	-0.286506	-0.707	0.707
    94	-0.272274	-0.707	0.707
    95	-0.295907	-0.707	0.707
    96	-0.243766	-0.707	0.707
    97	-0.272887	-0.707	0.707
    98	-0.248258	-0.707	0.707
    99	-0.258257	-0.707	0.707
   100	-0.255785	-0.707	0.707
   101	-0.246618	-0.707	0.707
   102	-0.276279	-0.707	0.707
   103	-0.259177	-0.707	0.707
   104	-0.271098	-0.707	0.707
   105	-0.263372	-0.707	0.707
   106	-0.245829	-0.707	0.707
   107	-0.246494	-0.707	0.707
   108	-0.243477	-0.707	0.707
   109	-0.242634	-0.707	0.707
   110	-0.305811	-0.707	0.707
   111	-0.227499	-0.707	0.707
   112	-0.21717	-0.707	0.707
   113	-0.26079	-0.707	0.707
   114	-0.26977	-0.707	0.707
   115	-0.222443	-0.707	0.707
   116	-0.289207	-0.707	0.707
   117	-0.283657	-0.707	0.707
   118	-0.245332	-0.707	0.707
   119	-0.267433	-0.707	0.707
   120	-0.239754	-0.707	0.707
   121	-0.260188	-0.707	0.707
   122	-0.253836	-0.707	0.707
   123	-0.239277	-0.707	0.707
   124	-0.275896	-0.707	0.707
   125	-0.274067	-0.707	0.707
   126	-0.291392	-0.707	0.707
   127	-0.286669	-0.707	0.707
   128	-0.255006	-0.707	0.707
   129	-0.297083	-0.707	0.707
   130	-0.263924	-0.707	0.707
   131	-0.233617	-0.707	0.707
   132	-0.256179	-0.707	0.707
   133	-0.298611	-0.707	0.707
   134	-0.267321	-0.707	0.707
   135	-0.256317	-0.707	0.707
   136	-0.293905	-0.707	0.707
   137	-0.231335	-0.707	0.707
   138	-0.282114	-0.707	0.707
   139	-0.231549	-0.707	0.707
   140	-0.282049	-0.707	0.707
   141	-0.256413	-0.707	0.707
   142	-0.300593	-0.707	0.707
   143	-0.295796	-0.707	0.707
   144	-0.266732	-0.707	0.707
   145	-0.277099	-0.707	0.707
   146	-0.224848	-0.707	0.707
   147	-0.263973	-0.707	0.707
   148	-0.282859	-0.707	0.707
   149	-0.260384	-0.707	0.707
   150	-0.260419	-0.707	0.707
   151	-0.286156	-0.707	0.707
   152	-0.294171	-0.707	0.707
   153	-0.262881	-0.707	0.707
   154	-0.287901	-0.707	0.707
   155	-0.256238	-0.707	0.707
   156	-0.259115	-0.707	0.707
   157	-0.249691	-0.707	0.707
   158	-0.252655	-0.707	0.707
   159	-0.291192	-0.707	0.707
   160	-0.270309	-0.707	0.707
   161	-0.285853	-0.707	0.707
   162	-0.239734	-0.707	0.707
   163	-0.277819	-0.707	0.707
   164	-0.231555	-0.707	0.707
   165	-0.305609	-0.707	0.707
   166	-0.277804	-0.707	0.707
   167	-0.235403	-0.707	0.707
   168	-0.280573	-0.707	0.707
   169	-0.165938	-0.707	0.707
   170	-0.241901	-0.707	0.707
   171	-0.250694	-0.707	0.707
   172	-0.304977	-0.707	0.707
   173	-0.247446	-0.707	0.707
   174	-0.23011	-0.707	0.707
   175	-0.224485	-0.707	0.707
   176	-0.341966	-0.707	0.707
   177	-0.237678	-0.707	0.707
   178	-0.26928	-0.707	0.707
   179	-0.284854	-0.707	0.707
   180	-0.240368	-0.707	0.707
   181	-0.271125	-0.707	0.707
   182	-0.250169	-0.707	0.707
   183	-0.268495	-0.707	0.707
   184	-0.271741	-0.707	0.707
   185	-0.249021	-0.707	0.707
   186	-0.231319	-0.707	0.707
   187	-0.222786	-0.707	0.707
   188	-0.273664	-0.707	0.707
   189	-0.24898	-0.707	0.707
   190	-0.239176	-0.707	0.707
   191	-0.283136	-0.707	0.707
   192	-0.24599	-0.707	0.707
   193	-0.297984	-0.707	0.707
   194	-0.244662	-0.707	0.707
   195	-0.265596	-0.707	0.707
   196	-0.258462	-0.707	0.707
   197	-0.253479	-0.707	0.707
   198	-0.236799	-0.707	0.707
   199	-0.254704	-0.707	0.707
   200	-0.275858	-0.707	0.707
   201	-0.248943	-0.707	0.707
   202	-0.268403	-0.707	0.707
   203	-0.304568	-0.707	0.707
   204	-0.240794	-0.707	0.707
   205	-0.281516	-0.707	0.707
   206	-0.296436	-0.707	0.707
   207	-0.25044	-0.707	0.707
   208	-0.270645	-0.707	0.707
   209	-0.295411	-0.707	0.707
   210	-0.267701	-0.707	0.707
   211	-0.277847	-0.707	0.707
   212	-0.263387	-0.707	0.707
   213	-0.278722	-0.707	0.707
   214	-0.275983	-0.707	0.707
   215	-0.254508	-0.707	0.707
   216	-0.277272	-0.707	0.707
   217	-0.251398	-0.707	0.707
   218	-0.262672	-0.707	0.707
   219	-0.259391	-0.707	0.707
   220	-0.307422	-0.707	0.707
   221	-0.290296	-0.707	0.707
   222	-0.301481	-0.707	0.707
   223	-0.218354	-0.707	0.707
   224	-0.279992	-0.707	0.707
   225	-0.256679	-0.707	0.707
   226	-0.258738	-0.707	0.707
   227	-0.227543	-0.707	0.707
   228	-0.242359	-0.707	0.707
   229	-0.24023	-0.707	0.707
   230	-0.225471	-0.707	0.707
   231	-0.252438	-0.707	0.707
   232	-0.252331	-0.707	0.707
   233	-0.266289	-0.707	0.707
   234	-0.243437	-0.707	0.707
   235	-0.276425	-0.707	0.707
   236	-0.205806	-0.707	0.707
   237	-0.219599	-0.707	0.707
   238	-0.263492	-0.707	0.707
   239	-0.271779	-0.707	0.707
   240	-0.259931	-0.707	0.707
   241	-0.270028	-0.707	0.707
   242	-0.289303	-0.707	0.707
   243	-0.27756	-0.707	0.707
   244	-0.249373	-0.707	0.707
   245	-0.293885	-0.707	0.707
   246	-0.238761	-0.707	0.707
   247	-0.262662	-0.707	0.707
   248	-0.273183	-0.707	0.707
   249	-0.273266	-0.707	0.707
   250	-0.29601	-0.707	0.707
   251	-0.282502	-0.707	0.707
   252	-0.262743	-0.707	0.707
   253	-0.254689	-0.707	0.707
   254	-0.230051	-0.707	0.707
   255	-0.265552	-0.707	0.707
   256	-0.26065	-0.707	0.707
   257	-0.211758	-0.707	0.707
   258	-0.237315	-0.707	0.707
   259	-0.275548	-0.707	0.707
   260	-0.279617	-0.707	0.707
   261	-0.251358	-0.707	0.707
   262	-0.317692	-0.707	0.707
   263	-0.296745	-0.707	0.707
   264	-0.254918	-0.707	0.707
   265	-0.215633	-0.707	0.707
   266	-0.244626	-0.707	0.707
   267	-0.25115	-0.707	0.707
   268	-0.243616	-0.707	0.707
   269	-0.256631	-0.707	0.707
   270	-0.228379	-0.707	0.707
   271	-0.300096	-0.707	0.707
   272	-0.284989	-0.707	0.707
   273	-0.295526	-0.707	0.707
   274	-0.241539	-0.707	0.707
   275	-0.274344	-0.707	0.707
   276	-0.217199	-0.707	0.707
   277	-0.254086	-0.707	0.707
   278	-0.24521	-0.707	0.707
   279	-0.237199	-0.707	0.707
   280	-0.287027	-0.707	0.707
   281	-0.27817	-0.707	0.707
   282	-0.275899	-0.707	0.707
   283	-0.248826	-0.707	0.707
   284	-0.256675	-0.707	0.707
   285	-0.244936	-0.707	0.707
   286	-0.26109	-0.707	0.707
   287	-0.263888	-0.707	0.707
   288	-0.222063	-0.707	0.707
   289	-0.259667	-0.707	0.707
   290	-0.275933	-0.707	0.707
   291	-0.215872	-0.707	0.707
   292	-0.222559	-0.707	0.707
   293	-0.250035	-0.707	0.707
   294	-0.266322	-0.707	0.707
   295	-0.214358	-0.707	0.707
   296	-0.23438	-0.707	0.707
   297	-0.303509	-0.707	0.707
   298	-0.251769	-0.707	0.707
   299	-0.314702	-0.707	0.707
   300	-0.235127	-0.707	0.707
   301	-0.264901	-0.707	0.707
   302	-0.216381	-0.707	0.707
   303	-0.252573	-0.707	0.707
   304	-0.262934	-0.707	0.707
   305	-0.210675	-0.707	0.707
   306	-0.252139	-0.707	0.707
   307	-0.250962	-0.707	0.707
   308	-0.271903	-0.707	0.707
   309	-0.257154	-0.707	0.707
   310	-0.258816	-0.707	0.707
   311	-0.234885	-0.707	0.707
   312	-0.248968	-0.707	0.707
   313	-0.282964	-0.707	0.707
   314	-0.307159	-0.707	0.707
   315	-0.27298	-0.707	0.707
   316	-0.263333	-0.707	0.707
   317	-0.234725	-0.707	0.707
   318	-0.256651	-0.707	0.707
   319	-0.18797	-0.707	0.707
   320	-0.242986	-0.707	0.707
   321	-0.268768	-0.707	0.707
   322	-0.260754	-0.707	0.707
   323	-0.246834	-0.707	0.707
   324	-0.264536	-0.707	0.707
   325	-0.288579	-0.707	0.707
   326	-0.254195	-0.707	0.707
   327	-0.290782	-0.707	0.707
   328	-0.305499	-0.707	0.707
   329	-0.296622	-0.707	0.707
   330	-0.293807	-0.707	0.707
   331	-0.250075	-0.707	0.707
   332	-0.225554	-0.707	0.707
   333	-0.247191	-0.707	0.707
   334	-0.255772	-0.707	0.707
   335	-0.290955	-0.707	0.707
   336	-0.270998	-0.707	0.707
   337	-0.29102	-0.707	0.707
   338	-0.235151	-0.707	0.707
   339	-0.215714	-0.707	0.707
   340	-0.253817	-0.707	0.707
   341	-0.295664	-0.707	0.707
   342	-0.266842	-0.707	0.707
   343	-0.26271	-0.707	0.707
   344	-0.264178	-0.707	0.707
   345	-0.240412	-0.707	0.707
   346	-0.269725	-0.707	0.707
   347	-0.272674	-0.707	0.707
   348	-0.308848	-0.707	0.707
   349	-0.236092	-0.707	0.707
   350	-0.247294	-0.707	0.707
   351	-0.264676	-0.707	0.707
   352	-0.240637	-0.707	0.707
   353	-0.27267	-0.707	0.707
   354	-0.262424	-0.707	0.707
   355	-0.249398	-0.707	0.707
   356	-0.229892	-0.707	0.707
   357	-0.267785	-0.707	0.707
   358	-0.290087	-0.707	0.707
   359	-0.280633	-0.707	0.707
   360	-0.250492	-0.707	0.707
   361	-0.182239	-0.707	0.707
   362	-0.241967	-0.707	0.707
   363	-0.263025	-0.707	0.707
   364	-0.282252	-0.707	0.707
   365	-0.241373	-0.707	0.707
   366	-0.243036	-0.707	0.707
   367	-0.270382	-0.707	0.707
   368	-0.265493	-0.707	0.707
   369	-0.277663	-0.707	0.707
   370	-0.248911	-0.707	0.707
   371	-0.231723	-0.707	0.707
   372	-0.241766	-0.707	0.707
   373	-0.219431	-0.707	0.707
   374	-0.285526	-0.707	0.707
   375	-0.271152	-0.707	0.707
   376	-0.24889	-0.707	0.707
   377	-0.282136	-0.707	0.707
   378	-0.274794	-0.707	0.707
   379	-0.198581	-0.707	0.707
   380	-0.268714	-0.707	0.707
   381	-0.291772	-0.707	0.707
   382	-0.2189	-0.707	0.707
   383	-0.22272	-0.707	0.707
   384	-0.254382	-0.707	0.707
   385	-0.311391	-0.707	0.707
   386	-0.250418	-0.707	0.707
   387	-0.280485	-0.707	0.707
   388	-0.298826	-0.707	0.707
   389	-0.245695	-0.707	0.707
   390	-0.282426	-0.707	0.707
   391	-0.184214	-0.707	0.707
   392	-0.28213	-0.707	0.707
   393	-0.23898	-0.707	0.707
   394	-0.252384	-0.707	0.707
   395	-0.281958	-0.707	0.707
   396	-0.224601	-0.707	0.707
   397	-0.302669	-0.707	0.707
   398	-0.251718	-0.707	0.707
   399	-0.254521	-0.707	0.707
   400	-0.234498	-0.707	0.707


Date: Mon Nov 27 01:31:54 2023
Total elapsed time: 28.093 seconds.

tnom = 27
temp = 27
method = trap
totiter = 298
traniter = 0
tranpoints = 0
accept = 0
rejected = 0
matrix size = 33
fillins = 28
solver = Normal
Avg thread counts: 6.9/0.0/8.0/6.9
Matrix Compiler1: 2.14 KB object code size  0.7/0.4/[0.4]
Matrix Compiler2: 2.78 KB object code size  0.3/0.5/[0.1]

