Circuit: * D:\Disco D\universita\magistrale\progettazione-low-power\progetti\progetto-2\ltspice\models\gaussian-vth\hold\gaussian_vth_hold.asc

WARNING: Node NC_01 is floating.
WARNING: Node NC_02 is floating.
WARNING: Node NC_03 is floating.
WARNING: Node NC_04 is floating.
WARNING: Node NC_05 is floating.

WARNING: Less than two connections to node nc_01.  This node is used by vsweep.
WARNING: Less than two connections to node nc_02.  This node is used by e2.
WARNING: Less than two connections to node nc_03.  This node is used by e8.
WARNING: Less than two connections to node nc_04.  This node is used by m5.
WARNING: Less than two connections to node nc_05.  This node is used by m6.
Warning: Pd = 0 is less than W.
Warning: Ps = 0 is less than W.
Warning: Pd = 0 is less than W.
Warning: Ps = 0 is less than W.
Warning: Pd = 0 is less than W.
Warning: Ps = 0 is less than W.
.step run=1
.step run=2
.step run=3
.step run=4
.step run=5
.step run=6
.step run=7
.step run=8
.step run=9
.step run=10
.step run=11
.step run=12
.step run=13
.step run=14
.step run=15
.step run=16
.step run=17
.step run=18
.step run=19
.step run=20
.step run=21
.step run=22
.step run=23
.step run=24
.step run=25
.step run=26
.step run=27
.step run=28
.step run=29
.step run=30
.step run=31
.step run=32
.step run=33
.step run=34
.step run=35
.step run=36
.step run=37
.step run=38
.step run=39
.step run=40
.step run=41
.step run=42
.step run=43
.step run=44
.step run=45
.step run=46
.step run=47
.step run=48
.step run=49
.step run=50
.step run=51
.step run=52
.step run=53
.step run=54
.step run=55
.step run=56
.step run=57
.step run=58
.step run=59
.step run=60
.step run=61
.step run=62
.step run=63
.step run=64
.step run=65
.step run=66
.step run=67
.step run=68
.step run=69
.step run=70
.step run=71
.step run=72
.step run=73
.step run=74
.step run=75
.step run=76
.step run=77
.step run=78
.step run=79
.step run=80
.step run=81
.step run=82
.step run=83
.step run=84
.step run=85
.step run=86
.step run=87
.step run=88
.step run=89
.step run=90
.step run=91
.step run=92
.step run=93
.step run=94
.step run=95
.step run=96
.step run=97
.step run=98
.step run=99
.step run=100
.step run=101
.step run=102
.step run=103
.step run=104
.step run=105
.step run=106
.step run=107
.step run=108
.step run=109
.step run=110
.step run=111
.step run=112
.step run=113
.step run=114
.step run=115
.step run=116
.step run=117
.step run=118
.step run=119
.step run=120
.step run=121
.step run=122
.step run=123
.step run=124
.step run=125
.step run=126
.step run=127
.step run=128
.step run=129
.step run=130
.step run=131
.step run=132
.step run=133
.step run=134
.step run=135
.step run=136
.step run=137
.step run=138
.step run=139
.step run=140
.step run=141
.step run=142
.step run=143
.step run=144
.step run=145
.step run=146
.step run=147
.step run=148
.step run=149
.step run=150
.step run=151
.step run=152
.step run=153
.step run=154
.step run=155
.step run=156
.step run=157
.step run=158
.step run=159
.step run=160
.step run=161
.step run=162
.step run=163
.step run=164
.step run=165
.step run=166
.step run=167
.step run=168
.step run=169
.step run=170
.step run=171
.step run=172
.step run=173
.step run=174
.step run=175
.step run=176
.step run=177
.step run=178
.step run=179
.step run=180
.step run=181
.step run=182
.step run=183
.step run=184
.step run=185
.step run=186
.step run=187
.step run=188
.step run=189
.step run=190
.step run=191
.step run=192
.step run=193
.step run=194
.step run=195
.step run=196
.step run=197
.step run=198
.step run=199
.step run=200
.step run=201
.step run=202
.step run=203
.step run=204
.step run=205
.step run=206
.step run=207
.step run=208
.step run=209
.step run=210
.step run=211
.step run=212
.step run=213
.step run=214
.step run=215
.step run=216
.step run=217
.step run=218
.step run=219
.step run=220
.step run=221
.step run=222
.step run=223
.step run=224
.step run=225
.step run=226
.step run=227
.step run=228
.step run=229
.step run=230
.step run=231
.step run=232
.step run=233
.step run=234
.step run=235
.step run=236
.step run=237
.step run=238
.step run=239
.step run=240
.step run=241
.step run=242
.step run=243
.step run=244
.step run=245
.step run=246
.step run=247
.step run=248
.step run=249
.step run=250
.step run=251
.step run=252
.step run=253
.step run=254
.step run=255
.step run=256
.step run=257
.step run=258
.step run=259
.step run=260
.step run=261
.step run=262
.step run=263
.step run=264
.step run=265
.step run=266
.step run=267
.step run=268
.step run=269
.step run=270
.step run=271
.step run=272
.step run=273
.step run=274
.step run=275
.step run=276
.step run=277
.step run=278
.step run=279
.step run=280
.step run=281
.step run=282
.step run=283
.step run=284
.step run=285
.step run=286
.step run=287
.step run=288
.step run=289
.step run=290
.step run=291
.step run=292
.step run=293
.step run=294
.step run=295
.step run=296
.step run=297
.step run=298
.step run=299
.step run=300
.step run=301
.step run=302
.step run=303
.step run=304
.step run=305
.step run=306
.step run=307
.step run=308
.step run=309
.step run=310
.step run=311
.step run=312
.step run=313
.step run=314
.step run=315
.step run=316
.step run=317
.step run=318
.step run=319
.step run=320
.step run=321
.step run=322
.step run=323
.step run=324
.step run=325
.step run=326
.step run=327
.step run=328
.step run=329
.step run=330
.step run=331
.step run=332
.step run=333
.step run=334
.step run=335
.step run=336
.step run=337
.step run=338
.step run=339
.step run=340
.step run=341
.step run=342
.step run=343
.step run=344
.step run=345
.step run=346
.step run=347
.step run=348
.step run=349
.step run=350
.step run=351
.step run=352
.step run=353
.step run=354
.step run=355
.step run=356
.step run=357
.step run=358
.step run=359
.step run=360
.step run=361
.step run=362
.step run=363
.step run=364
.step run=365
.step run=366
.step run=367
.step run=368
.step run=369
.step run=370
.step run=371
.step run=372
.step run=373
.step run=374
.step run=375
.step run=376
.step run=377
.step run=378
.step run=379
.step run=380
.step run=381
.step run=382
.step run=383
.step run=384
.step run=385
.step run=386
.step run=387
.step run=388
.step run=389
.step run=390
.step run=391
.step run=392
.step run=393
.step run=394
.step run=395
.step run=396
.step run=397
.step run=398
.step run=399
.step run=400


Measurement: snm_max
  step	MAX(0.707*v(v1)-0.707*v(v2))	FROM	TO
     1	0.0146052	-0.17675	0.17675
     2	0.065524	-0.17675	0.17675
     3	0.0401286	-0.17675	0.17675
     4	0.0671176	-0.17675	0.17675
     5	0.0834641	-0.17675	0.17675
     6	0.0823492	-0.17675	0.17675
     7	0.0761733	-0.17675	0.17675
     8	0.0313053	-0.17675	0.17675
     9	0.0463382	-0.17675	0.17675
    10	0.0555988	-0.17675	0.17675
    11	0.0156992	-0.17675	0.17675
    12	0.0585753	-0.17675	0.17675
    13	0.0655937	-0.17675	0.17675
    14	0.0643737	-0.17675	0.17675
    15	0.0372318	-0.17675	0.17675
    16	0.0552263	-0.17675	0.17675
    17	0.0562586	-0.17675	0.17675
    18	0.0681397	-0.17675	0.17675
    19	0.071025	-0.17675	0.17675
    20	0.0824893	-0.17675	0.17675
    21	0.0377892	-0.17675	0.17675
    22	0.0575301	-0.17675	0.17675
    23	0.066298	-0.17675	0.17675
    24	0.0803004	-0.17675	0.17675
    25	0.0841553	-0.17675	0.17675
    26	0.0356139	-0.17675	0.17675
    27	0.085224	-0.17675	0.17675
    28	0.0214945	-0.17675	0.17675
    29	0.0462335	-0.17675	0.17675
    30	0.0500289	-0.17675	0.17675
    31	0.0442511	-0.17675	0.17675
    32	0.0562396	-0.17675	0.17675
    33	0.0580361	-0.17675	0.17675
    34	0.0770555	-0.17675	0.17675
    35	0.0693758	-0.17675	0.17675
    36	0.063437	-0.17675	0.17675
    37	0.0637848	-0.17675	0.17675
    38	0.0657971	-0.17675	0.17675
    39	0.0771827	-0.17675	0.17675
    40	0.0534466	-0.17675	0.17675
    41	0.0325359	-0.17675	0.17675
    42	0.0458339	-0.17675	0.17675
    43	0.0746766	-0.17675	0.17675
    44	0.0724039	-0.17675	0.17675
    45	0.0791259	-0.17675	0.17675
    46	0.0533994	-0.17675	0.17675
    47	0.0515679	-0.17675	0.17675
    48	0.0720564	-0.17675	0.17675
    49	0.0672935	-0.17675	0.17675
    50	0.0153876	-0.17675	0.17675
    51	0.0774077	-0.17675	0.17675
    52	0.0777561	-0.17675	0.17675
    53	0.0539409	-0.17675	0.17675
    54	0.0756196	-0.17675	0.17675
    55	0.0781898	-0.17675	0.17675
    56	0.0838405	-0.17675	0.17675
    57	0.0650536	-0.17675	0.17675
    58	0.0759227	-0.17675	0.17675
    59	0.051276	-0.17675	0.17675
    60	0.0719165	-0.17675	0.17675
    61	0.0642034	-0.17675	0.17675
    62	0.0463542	-0.17675	0.17675
    63	0.026313	-0.17675	0.17675
    64	0.0689645	-0.17675	0.17675
    65	0.0495213	-0.17675	0.17675
    66	0.0834211	-0.17675	0.17675
    67	0.042502	-0.17675	0.17675
    68	0.0793318	-0.17675	0.17675
    69	0.0406203	-0.17675	0.17675
    70	0.0193086	-0.17675	0.17675
    71	0.0747376	-0.17675	0.17675
    72	0.0619037	-0.17675	0.17675
    73	0.0564658	-0.17675	0.17675
    74	0.0585288	-0.17675	0.17675
    75	0.0630583	-0.17675	0.17675
    76	0.0679799	-0.17675	0.17675
    77	0.0675183	-0.17675	0.17675
    78	0.0517279	-0.17675	0.17675
    79	0.0267145	-0.17675	0.17675
    80	0.0613647	-0.17675	0.17675
    81	0.0835493	-0.17675	0.17675
    82	0.0568878	-0.17675	0.17675
    83	0.0780051	-0.17675	0.17675
    84	0.0714214	-0.17675	0.17675
    85	0.0690864	-0.17675	0.17675
    86	0.078225	-0.17675	0.17675
    87	0.08071	-0.17675	0.17675
    88	0.0750357	-0.17675	0.17675
    89	0.0325894	-0.17675	0.17675
    90	0.0806092	-0.17675	0.17675
    91	0.0454118	-0.17675	0.17675
    92	0.07757	-0.17675	0.17675
    93	0.0728022	-0.17675	0.17675
    94	0.0809929	-0.17675	0.17675
    95	0.0737063	-0.17675	0.17675
    96	0.0626952	-0.17675	0.17675
    97	0.0757443	-0.17675	0.17675
    98	0.0652041	-0.17675	0.17675
    99	0.0516059	-0.17675	0.17675
   100	0.0798701	-0.17675	0.17675
   101	0.0681614	-0.17675	0.17675
   102	0.0811047	-0.17675	0.17675
   103	0.052563	-0.17675	0.17675
   104	0.0818533	-0.17675	0.17675
   105	0.0583799	-0.17675	0.17675
   106	0.0759603	-0.17675	0.17675
   107	0.0490092	-0.17675	0.17675
   108	0.0536229	-0.17675	0.17675
   109	0.0220755	-0.17675	0.17675
   110	0.0847828	-0.17675	0.17675
   111	0.0389933	-0.17675	0.17675
   112	0.017051	-0.17675	0.17675
   113	0.0678104	-0.17675	0.17675
   114	0.0638026	-0.17675	0.17675
   115	0.0652396	-0.17675	0.17675
   116	0.0803465	-0.17675	0.17675
   117	0.0677105	-0.17675	0.17675
   118	0.0689099	-0.17675	0.17675
   119	0.0830782	-0.17675	0.17675
   120	0.0223286	-0.17675	0.17675
   121	0.0690693	-0.17675	0.17675
   122	0.0754544	-0.17675	0.17675
   123	0.0430781	-0.17675	0.17675
   124	0.0449779	-0.17675	0.17675
   125	0.074279	-0.17675	0.17675
   126	0.0694263	-0.17675	0.17675
   127	0.084048	-0.17675	0.17675
   128	0.0633218	-0.17675	0.17675
   129	0.0785041	-0.17675	0.17675
   130	0.076009	-0.17675	0.17675
   131	0.0639799	-0.17675	0.17675
   132	0.0646179	-0.17675	0.17675
   133	0.0850642	-0.17675	0.17675
   134	0.0559815	-0.17675	0.17675
   135	0.0417283	-0.17675	0.17675
   136	0.0800208	-0.17675	0.17675
   137	0.0585671	-0.17675	0.17675
   138	0.0593171	-0.17675	0.17675
   139	0.0405822	-0.17675	0.17675
   140	0.0839912	-0.17675	0.17675
   141	0.0354527	-0.17675	0.17675
   142	0.0846442	-0.17675	0.17675
   143	0.0724736	-0.17675	0.17675
   144	0.0523181	-0.17675	0.17675
   145	0.0841695	-0.17675	0.17675
   146	0.023523	-0.17675	0.17675
   147	0.0783733	-0.17675	0.17675
   148	0.074204	-0.17675	0.17675
   149	0.0746068	-0.17675	0.17675
   150	0.0493654	-0.17675	0.17675
   151	0.0713034	-0.17675	0.17675
   152	0.0751566	-0.17675	0.17675
   153	0.0550861	-0.17675	0.17675
   154	0.0834636	-0.17675	0.17675
   155	0.0737071	-0.17675	0.17675
   156	0.0670736	-0.17675	0.17675
   157	0.0575818	-0.17675	0.17675
   158	0.0624995	-0.17675	0.17675
   159	0.0750367	-0.17675	0.17675
   160	0.0714332	-0.17675	0.17675
   161	0.0839641	-0.17675	0.17675
   162	0.0498295	-0.17675	0.17675
   163	0.0592448	-0.17675	0.17675
   164	0.0319489	-0.17675	0.17675
   165	0.0830671	-0.17675	0.17675
   166	0.0758387	-0.17675	0.17675
   167	0.0171019	-0.17675	0.17675
   168	0.0743934	-0.17675	0.17675
   169	0.0404477	-0.17675	0.17675
   170	0.064372	-0.17675	0.17675
   171	0.0587893	-0.17675	0.17675
   172	0.0620564	-0.17675	0.17675
   173	0.0566051	-0.17675	0.17675
   174	0.0637358	-0.17675	0.17675
   175	0.0491088	-0.17675	0.17675
   176	0.0551456	-0.17675	0.17675
   177	0.0569084	-0.17675	0.17675
   178	0.0603147	-0.17675	0.17675
   179	0.0683545	-0.17675	0.17675
   180	0.0583595	-0.17675	0.17675
   181	0.0656214	-0.17675	0.17675
   182	0.0675712	-0.17675	0.17675
   183	0.0803548	-0.17675	0.17675
   184	0.0699444	-0.17675	0.17675
   185	0.0408213	-0.17675	0.17675
   186	0.0542777	-0.17675	0.17675
   187	0.0561886	-0.17675	0.17675
   188	0.0696957	-0.17675	0.17675
   189	0.0811952	-0.17675	0.17675
   190	0.0510973	-0.17675	0.17675
   191	0.0685214	-0.17675	0.17675
   192	0.0483802	-0.17675	0.17675
   193	0.0827375	-0.17675	0.17675
   194	0.0412786	-0.17675	0.17675
   195	0.0747835	-0.17675	0.17675
   196	0.0646005	-0.17675	0.17675
   197	0.0408475	-0.17675	0.17675
   198	0.0716493	-0.17675	0.17675
   199	0.0563287	-0.17675	0.17675
   200	0.0793295	-0.17675	0.17675
   201	0.073651	-0.17675	0.17675
   202	0.0592792	-0.17675	0.17675
   203	0.0840823	-0.17675	0.17675
   204	0.0621535	-0.17675	0.17675
   205	0.0706766	-0.17675	0.17675
   206	0.0834583	-0.17675	0.17675
   207	0.0777648	-0.17675	0.17675
   208	0.0693533	-0.17675	0.17675
   209	0.0808723	-0.17675	0.17675
   210	0.0702686	-0.17675	0.17675
   211	0.081089	-0.17675	0.17675
   212	0.0742599	-0.17675	0.17675
   213	0.079183	-0.17675	0.17675
   214	0.0839905	-0.17675	0.17675
   215	0.0635444	-0.17675	0.17675
   216	0.0489783	-0.17675	0.17675
   217	0.0392462	-0.17675	0.17675
   218	0.079926	-0.17675	0.17675
   219	0.0520233	-0.17675	0.17675
   220	0.0851043	-0.17675	0.17675
   221	0.0599795	-0.17675	0.17675
   222	0.0850017	-0.17675	0.17675
   223	0.0602215	-0.17675	0.17675
   224	0.0779594	-0.17675	0.17675
   225	0.047637	-0.17675	0.17675
   226	0.0258446	-0.17675	0.17675
   227	0.0547054	-0.17675	0.17675
   228	0.0528913	-0.17675	0.17675
   229	0.0538396	-0.17675	0.17675
   230	0.0371643	-0.17675	0.17675
   231	0.0534505	-0.17675	0.17675
   232	0.0540347	-0.17675	0.17675
   233	0.0562398	-0.17675	0.17675
   234	0.0636319	-0.17675	0.17675
   235	0.0751142	-0.17675	0.17675
   236	0.0348723	-0.17675	0.17675
   237	0.0276638	-0.17675	0.17675
   238	0.0594041	-0.17675	0.17675
   239	0.0542745	-0.17675	0.17675
   240	0.0641536	-0.17675	0.17675
   241	0.0768642	-0.17675	0.17675
   242	0.0817816	-0.17675	0.17675
   243	0.067415	-0.17675	0.17675
   244	0.049975	-0.17675	0.17675
   245	0.0848896	-0.17675	0.17675
   246	0.0613758	-0.17675	0.17675
   247	0.0760612	-0.17675	0.17675
   248	0.0783703	-0.17675	0.17675
   249	0.0832378	-0.17675	0.17675
   250	0.080958	-0.17675	0.17675
   251	0.0806169	-0.17675	0.17675
   252	0.0679897	-0.17675	0.17675
   253	0.0676811	-0.17675	0.17675
   254	0.057157	-0.17675	0.17675
   255	0.0641918	-0.17675	0.17675
   256	0.0523395	-0.17675	0.17675
   257	0.0217753	-0.17675	0.17675
   258	0.0624943	-0.17675	0.17675
   259	0.0596831	-0.17675	0.17675
   260	0.0714378	-0.17675	0.17675
   261	0.0611528	-0.17675	0.17675
   262	0.08343	-0.17675	0.17675
   263	0.0736472	-0.17675	0.17675
   264	0.0771635	-0.17675	0.17675
   265	0.0365264	-0.17675	0.17675
   266	0.0539361	-0.17675	0.17675
   267	0.0470592	-0.17675	0.17675
   268	0.0697859	-0.17675	0.17675
   269	0.0689746	-0.17675	0.17675
   270	0.0419767	-0.17675	0.17675
   271	0.0848882	-0.17675	0.17675
   272	0.0846606	-0.17675	0.17675
   273	0.0659789	-0.17675	0.17675
   274	0.0667316	-0.17675	0.17675
   275	0.0771587	-0.17675	0.17675
   276	0.0195472	-0.17675	0.17675
   277	0.0511107	-0.17675	0.17675
   278	0.0693296	-0.17675	0.17675
   279	0.0624556	-0.17675	0.17675
   280	0.0740798	-0.17675	0.17675
   281	0.0740989	-0.17675	0.17675
   282	0.0703074	-0.17675	0.17675
   283	0.0531585	-0.17675	0.17675
   284	0.0751415	-0.17675	0.17675
   285	0.065167	-0.17675	0.17675
   286	0.0745657	-0.17675	0.17675
   287	0.0613608	-0.17675	0.17675
   288	0.0667575	-0.17675	0.17675
   289	0.0635232	-0.17675	0.17675
   290	0.0758873	-0.17675	0.17675
   291	0.0522405	-0.17675	0.17675
   292	0.0531312	-0.17675	0.17675
   293	0.0471817	-0.17675	0.17675
   294	0.0698986	-0.17675	0.17675
   295	0.0563235	-0.17675	0.17675
   296	0.072042	-0.17675	0.17675
   297	0.0803842	-0.17675	0.17675
   298	0.0677088	-0.17675	0.17675
   299	0.0836916	-0.17675	0.17675
   300	0.0451985	-0.17675	0.17675
   301	0.0691699	-0.17675	0.17675
   302	0.0355844	-0.17675	0.17675
   303	0.058034	-0.17675	0.17675
   304	0.0543889	-0.17675	0.17675
   305	0.0374151	-0.17675	0.17675
   306	0.0444278	-0.17675	0.17675
   307	0.0570846	-0.17675	0.17675
   308	0.058919	-0.17675	0.17675
   309	0.0750198	-0.17675	0.17675
   310	0.062926	-0.17675	0.17675
   311	0.058219	-0.17675	0.17675
   312	0.0725006	-0.17675	0.17675
   313	0.0791916	-0.17675	0.17675
   314	0.0852975	-0.17675	0.17675
   315	0.0677086	-0.17675	0.17675
   316	0.0684543	-0.17675	0.17675
   317	0.0364154	-0.17675	0.17675
   318	0.0694533	-0.17675	0.17675
   319	0.016179	-0.17675	0.17675
   320	0.0463413	-0.17675	0.17675
   321	0.0410397	-0.17675	0.17675
   322	0.0828835	-0.17675	0.17675
   323	0.0662321	-0.17675	0.17675
   324	0.0615672	-0.17675	0.17675
   325	0.073311	-0.17675	0.17675
   326	0.0504514	-0.17675	0.17675
   327	0.0846398	-0.17675	0.17675
   328	0.084398	-0.17675	0.17675
   329	0.0822058	-0.17675	0.17675
   330	0.082581	-0.17675	0.17675
   331	0.0624417	-0.17675	0.17675
   332	0.0570547	-0.17675	0.17675
   333	0.0766124	-0.17675	0.17675
   334	0.0793579	-0.17675	0.17675
   335	0.0762916	-0.17675	0.17675
   336	0.0758087	-0.17675	0.17675
   337	0.048278	-0.17675	0.17675
   338	0.0542961	-0.17675	0.17675
   339	0.0362875	-0.17675	0.17675
   340	0.0333837	-0.17675	0.17675
   341	0.0820392	-0.17675	0.17675
   342	0.0516409	-0.17675	0.17675
   343	0.0668535	-0.17675	0.17675
   344	0.0567605	-0.17675	0.17675
   345	0.0484275	-0.17675	0.17675
   346	0.0839795	-0.17675	0.17675
   347	0.0650154	-0.17675	0.17675
   348	0.0777296	-0.17675	0.17675
   349	0.0163879	-0.17675	0.17675
   350	0.0770852	-0.17675	0.17675
   351	0.0804044	-0.17675	0.17675
   352	0.0605473	-0.17675	0.17675
   353	0.0764966	-0.17675	0.17675
   354	0.0719616	-0.17675	0.17675
   355	0.0768486	-0.17675	0.17675
   356	0.0645211	-0.17675	0.17675
   357	0.0838717	-0.17675	0.17675
   358	0.0845431	-0.17675	0.17675
   359	0.078646	-0.17675	0.17675
   360	0.0688532	-0.17675	0.17675
   361	0.0237877	-0.17675	0.17675
   362	0.0507712	-0.17675	0.17675
   363	0.0523089	-0.17675	0.17675
   364	0.059531	-0.17675	0.17675
   365	0.0334478	-0.17675	0.17675
   366	0.0416715	-0.17675	0.17675
   367	0.0776091	-0.17675	0.17675
   368	0.0818096	-0.17675	0.17675
   369	0.0840425	-0.17675	0.17675
   370	0.0569913	-0.17675	0.17675
   371	0.064278	-0.17675	0.17675
   372	0.067112	-0.17675	0.17675
   373	0.0306483	-0.17675	0.17675
   374	0.0609793	-0.17675	0.17675
   375	0.0823248	-0.17675	0.17675
   376	0.0594868	-0.17675	0.17675
   377	0.0827572	-0.17675	0.17675
   378	0.06866	-0.17675	0.17675
   379	0.0149114	-0.17675	0.17675
   380	0.0785368	-0.17675	0.17675
   381	0.0727045	-0.17675	0.17675
   382	0.0318676	-0.17675	0.17675
   383	0.0430748	-0.17675	0.17675
   384	0.0827747	-0.17675	0.17675
   385	0.0836868	-0.17675	0.17675
   386	0.0563447	-0.17675	0.17675
   387	0.0836406	-0.17675	0.17675
   388	0.0771686	-0.17675	0.17675
   389	0.05028	-0.17675	0.17675
   390	0.0716695	-0.17675	0.17675
   391	0.0270124	-0.17675	0.17675
   392	0.0832931	-0.17675	0.17675
   393	0.0565573	-0.17675	0.17675
   394	0.0804176	-0.17675	0.17675
   395	0.074473	-0.17675	0.17675
   396	0.0507261	-0.17675	0.17675
   397	0.0718051	-0.17675	0.17675
   398	0.0649756	-0.17675	0.17675
   399	0.0623305	-0.17675	0.17675
   400	0.0370252	-0.17675	0.17675

Measurement: snm_min
  step	MIN(0.707*v(v1)-0.707*v(v2))	FROM	TO
     1	-0.0146124	-0.17675	0.17675
     2	-0.0654757	-0.17675	0.17675
     3	-0.0400436	-0.17675	0.17675
     4	-0.0671471	-0.17675	0.17675
     5	-0.0834847	-0.17675	0.17675
     6	-0.0824027	-0.17675	0.17675
     7	-0.0763861	-0.17675	0.17675
     8	-0.0313228	-0.17675	0.17675
     9	-0.0464397	-0.17675	0.17675
    10	-0.055565	-0.17675	0.17675
    11	-0.0156931	-0.17675	0.17675
    12	-0.0584679	-0.17675	0.17675
    13	-0.0655614	-0.17675	0.17675
    14	-0.0642833	-0.17675	0.17675
    15	-0.0371939	-0.17675	0.17675
    16	-0.0551979	-0.17675	0.17675
    17	-0.0562245	-0.17675	0.17675
    18	-0.0682158	-0.17675	0.17675
    19	-0.0712405	-0.17675	0.17675
    20	-0.0825379	-0.17675	0.17675
    21	-0.0377453	-0.17675	0.17675
    22	-0.057448	-0.17675	0.17675
    23	-0.0662952	-0.17675	0.17675
    24	-0.0804193	-0.17675	0.17675
    25	-0.0841309	-0.17675	0.17675
    26	-0.0355987	-0.17675	0.17675
    27	-0.0851729	-0.17675	0.17675
    28	-0.0214656	-0.17675	0.17675
    29	-0.0463174	-0.17675	0.17675
    30	-0.0500986	-0.17675	0.17675
    31	-0.0442679	-0.17675	0.17675
    32	-0.0561883	-0.17675	0.17675
    33	-0.0579596	-0.17675	0.17675
    34	-0.0772506	-0.17675	0.17675
    35	-0.0695035	-0.17675	0.17675
    36	-0.0633139	-0.17675	0.17675
    37	-0.0636895	-0.17675	0.17675
    38	-0.0657731	-0.17675	0.17675
    39	-0.0773782	-0.17675	0.17675
    40	-0.0534472	-0.17675	0.17675
    41	-0.0325502	-0.17675	0.17675
    42	-0.0458769	-0.17675	0.17675
    43	-0.0749136	-0.17675	0.17675
    44	-0.0726818	-0.17675	0.17675
    45	-0.0792748	-0.17675	0.17675
    46	-0.0534078	-0.17675	0.17675
    47	-0.0515926	-0.17675	0.17675
    48	-0.0722782	-0.17675	0.17675
    49	-0.0673236	-0.17675	0.17675
    50	-0.0153835	-0.17675	0.17675
    51	-0.0775953	-0.17675	0.17675
    52	-0.0779385	-0.17675	0.17675
    53	-0.0539316	-0.17675	0.17675
    54	-0.0758433	-0.17675	0.17675
    55	-0.0783607	-0.17675	0.17675
    56	-0.0838228	-0.17675	0.17675
    57	-0.064989	-0.17675	0.17675
    58	-0.0761397	-0.17675	0.17675
    59	-0.0513043	-0.17675	0.17675
    60	-0.0721876	-0.17675	0.17675
    61	-0.0641089	-0.17675	0.17675
    62	-0.0464276	-0.17675	0.17675
    63	-0.0263759	-0.17675	0.17675
    64	-0.0690774	-0.17675	0.17675
    65	-0.0495874	-0.17675	0.17675
    66	-0.0834397	-0.17675	0.17675
    67	-0.0424574	-0.17675	0.17675
    68	-0.0794756	-0.17675	0.17675
    69	-0.0405347	-0.17675	0.17675
    70	-0.0192549	-0.17675	0.17675
    71	-0.0749816	-0.17675	0.17675
    72	-0.0617382	-0.17675	0.17675
    73	-0.0564227	-0.17675	0.17675
    74	-0.0584461	-0.17675	0.17675
    75	-0.0629331	-0.17675	0.17675
    76	-0.0680355	-0.17675	0.17675
    77	-0.0675615	-0.17675	0.17675
    78	-0.0517478	-0.17675	0.17675
    79	-0.0267812	-0.17675	0.17675
    80	-0.0611939	-0.17675	0.17675
    81	-0.0835605	-0.17675	0.17675
    82	-0.0568404	-0.17675	0.17675
    83	-0.0781796	-0.17675	0.17675
    84	-0.0716589	-0.17675	0.17675
    85	-0.0692064	-0.17675	0.17675
    86	-0.0783945	-0.17675	0.17675
    87	-0.0808168	-0.17675	0.17675
    88	-0.075267	-0.17675	0.17675
    89	-0.0325973	-0.17675	0.17675
    90	-0.0807182	-0.17675	0.17675
    91	-0.0454883	-0.17675	0.17675
    92	-0.0777547	-0.17675	0.17675
    93	-0.0730665	-0.17675	0.17675
    94	-0.0810902	-0.17675	0.17675
    95	-0.0739596	-0.17675	0.17675
    96	-0.0625646	-0.17675	0.17675
    97	-0.0759637	-0.17675	0.17675
    98	-0.065159	-0.17675	0.17675
    99	-0.0516466	-0.17675	0.17675
   100	-0.0800028	-0.17675	0.17675
   101	-0.0682384	-0.17675	0.17675
   102	-0.0811986	-0.17675	0.17675
   103	-0.0525887	-0.17675	0.17675
   104	-0.0819235	-0.17675	0.17675
   105	-0.0582908	-0.17675	0.17675
   106	-0.076188	-0.17675	0.17675
   107	-0.0490847	-0.17675	0.17675
   108	-0.0536214	-0.17675	0.17675
   109	-0.0220425	-0.17675	0.17675
   110	-0.0847471	-0.17675	0.17675
   111	-0.0389116	-0.17675	0.17675
   112	-0.0170497	-0.17675	0.17675
   113	-0.0678681	-0.17675	0.17675
   114	-0.0636954	-0.17675	0.17675
   115	-0.0651734	-0.17675	0.17675
   116	-0.0804452	-0.17675	0.17675
   117	-0.0677484	-0.17675	0.17675
   118	-0.0690213	-0.17675	0.17675
   119	-0.0830741	-0.17675	0.17675
   120	-0.0223011	-0.17675	0.17675
   121	-0.0691867	-0.17675	0.17675
   122	-0.0756845	-0.17675	0.17675
   123	-0.0430742	-0.17675	0.17675
   124	-0.0449993	-0.17675	0.17675
   125	-0.0745221	-0.17675	0.17675
   126	-0.0695409	-0.17675	0.17675
   127	-0.0840401	-0.17675	0.17675
   128	-0.0632075	-0.17675	0.17675
   129	-0.078669	-0.17675	0.17675
   130	-0.0762251	-0.17675	0.17675
   131	-0.0638884	-0.17675	0.17675
   132	-0.0645482	-0.17675	0.17675
   133	-0.0850149	-0.17675	0.17675
   134	-0.0559478	-0.17675	0.17675
   135	-0.0416722	-0.17675	0.17675
   136	-0.0801471	-0.17675	0.17675
   137	-0.0584536	-0.17675	0.17675
   138	-0.0592148	-0.17675	0.17675
   139	-0.0405244	-0.17675	0.17675
   140	-0.0839842	-0.17675	0.17675
   141	-0.03544	-0.17675	0.17675
   142	-0.0846151	-0.17675	0.17675
   143	-0.0727432	-0.17675	0.17675
   144	-0.0523513	-0.17675	0.17675
   145	-0.0841523	-0.17675	0.17675
   146	-0.0235251	-0.17675	0.17675
   147	-0.0785411	-0.17675	0.17675
   148	-0.0744486	-0.17675	0.17675
   149	-0.0748473	-0.17675	0.17675
   150	-0.0494425	-0.17675	0.17675
   151	-0.071523	-0.17675	0.17675
   152	-0.0753875	-0.17675	0.17675
   153	-0.055068	-0.17675	0.17675
   154	-0.0834788	-0.17675	0.17675
   155	-0.0739625	-0.17675	0.17675
   156	-0.0670997	-0.17675	0.17675
   157	-0.0575029	-0.17675	0.17675
   158	-0.0623597	-0.17675	0.17675
   159	-0.0752691	-0.17675	0.17675
   160	-0.0716713	-0.17675	0.17675
   161	-0.0839594	-0.17675	0.17675
   162	-0.0498903	-0.17675	0.17675
   163	-0.0591423	-0.17675	0.17675
   164	-0.0319696	-0.17675	0.17675
   165	-0.0830999	-0.17675	0.17675
   166	-0.0760563	-0.17675	0.17675
   167	-0.0170809	-0.17675	0.17675
   168	-0.0746349	-0.17675	0.17675
   169	-0.0404477	-0.17675	0.17675
   170	-0.0642971	-0.17675	0.17675
   171	-0.0586822	-0.17675	0.17675
   172	-0.0618879	-0.17675	0.17675
   173	-0.0565467	-0.17675	0.17675
   174	-0.0636331	-0.17675	0.17675
   175	-0.0491715	-0.17675	0.17675
   176	-0.0552385	-0.17675	0.17675
   177	-0.0568371	-0.17675	0.17675
   178	-0.06018	-0.17675	0.17675
   179	-0.0684212	-0.17675	0.17675
   180	-0.0582562	-0.17675	0.17675
   181	-0.0655802	-0.17675	0.17675
   182	-0.067622	-0.17675	0.17675
   183	-0.080471	-0.17675	0.17675
   184	-0.0700994	-0.17675	0.17675
   185	-0.0407485	-0.17675	0.17675
   186	-0.0542568	-0.17675	0.17675
   187	-0.0561253	-0.17675	0.17675
   188	-0.0698365	-0.17675	0.17675
   189	-0.0812066	-0.17675	0.17675
   190	-0.0511359	-0.17675	0.17675
   191	-0.0685972	-0.17675	0.17675
   192	-0.0484637	-0.17675	0.17675
   193	-0.0827807	-0.17675	0.17675
   194	-0.0412209	-0.17675	0.17675
   195	-0.0750198	-0.17675	0.17675
   196	-0.0645289	-0.17675	0.17675
   197	-0.0407719	-0.17675	0.17675
   198	-0.0718932	-0.17675	0.17675
   199	-0.0562807	-0.17675	0.17675
   200	-0.0794726	-0.17675	0.17675
   201	-0.0739119	-0.17675	0.17675
   202	-0.0591709	-0.17675	0.17675
   203	-0.0840768	-0.17675	0.17675
   204	-0.0620064	-0.17675	0.17675
   205	-0.0708642	-0.17675	0.17675
   206	-0.0834676	-0.17675	0.17675
   207	-0.0779526	-0.17675	0.17675
   208	-0.0694788	-0.17675	0.17675
   209	-0.0809748	-0.17675	0.17675
   210	-0.0704435	-0.17675	0.17675
   211	-0.0811834	-0.17675	0.17675
   212	-0.0745047	-0.17675	0.17675
   213	-0.0793298	-0.17675	0.17675
   214	-0.083981	-0.17675	0.17675
   215	-0.0634378	-0.17675	0.17675
   216	-0.049066	-0.17675	0.17675
   217	-0.0391749	-0.17675	0.17675
   218	-0.0800551	-0.17675	0.17675
   219	-0.052058	-0.17675	0.17675
   220	-0.0850572	-0.17675	0.17675
   221	-0.0598637	-0.17675	0.17675
   222	-0.0849575	-0.17675	0.17675
   223	-0.0600629	-0.17675	0.17675
   224	-0.0781349	-0.17675	0.17675
   225	-0.0477344	-0.17675	0.17675
   226	-0.0258823	-0.17675	0.17675
   227	-0.0546742	-0.17675	0.17675
   228	-0.0529022	-0.17675	0.17675
   229	-0.0538322	-0.17675	0.17675
   230	-0.0371114	-0.17675	0.17675
   231	-0.0534573	-0.17675	0.17675
   232	-0.0540308	-0.17675	0.17675
   233	-0.0562002	-0.17675	0.17675
   234	-0.0635318	-0.17675	0.17675
   235	-0.0753442	-0.17675	0.17675
   236	-0.0348722	-0.17675	0.17675
   237	-0.0277236	-0.17675	0.17675
   238	-0.0592898	-0.17675	0.17675
   239	-0.054276	-0.17675	0.17675
   240	-0.0640651	-0.17675	0.17675
   241	-0.0770631	-0.17675	0.17675
   242	-0.0818555	-0.17675	0.17675
   243	-0.0674439	-0.17675	0.17675
   244	-0.0500388	-0.17675	0.17675
   245	-0.0848453	-0.17675	0.17675
   246	-0.061206	-0.17675	0.17675
   247	-0.0762767	-0.17675	0.17675
   248	-0.0785367	-0.17675	0.17675
   249	-0.0832342	-0.17675	0.17675
   250	-0.0810581	-0.17675	0.17675
   251	-0.0806976	-0.17675	0.17675
   252	-0.0680544	-0.17675	0.17675
   253	-0.0677357	-0.17675	0.17675
   254	-0.0570758	-0.17675	0.17675
   255	-0.064101	-0.17675	0.17675
   256	-0.0523696	-0.17675	0.17675
   257	-0.0217494	-0.17675	0.17675
   258	-0.0623572	-0.17675	0.17675
   259	-0.0595684	-0.17675	0.17675
   260	-0.0716699	-0.17675	0.17675
   261	-0.0609835	-0.17675	0.17675
   262	-0.0834514	-0.17675	0.17675
   263	-0.0739014	-0.17675	0.17675
   264	-0.0773612	-0.17675	0.17675
   265	-0.0364762	-0.17675	0.17675
   266	-0.0539296	-0.17675	0.17675
   267	-0.0471611	-0.17675	0.17675
   268	-0.0699392	-0.17675	0.17675
   269	-0.0690888	-0.17675	0.17675
   270	-0.0419549	-0.17675	0.17675
   271	-0.0848486	-0.17675	0.17675
   272	-0.0846242	-0.17675	0.17675
   273	-0.0659364	-0.17675	0.17675
   274	-0.0667459	-0.17675	0.17675
   275	-0.0773512	-0.17675	0.17675
   276	-0.0194933	-0.17675	0.17675
   277	-0.0511571	-0.17675	0.17675
   278	-0.0694611	-0.17675	0.17675
   279	-0.0623173	-0.17675	0.17675
   280	-0.0743266	-0.17675	0.17675
   281	-0.0743447	-0.17675	0.17675
   282	-0.0704789	-0.17675	0.17675
   283	-0.0531685	-0.17675	0.17675
   284	-0.0753752	-0.17675	0.17675
   285	-0.0651209	-0.17675	0.17675
   286	-0.0748066	-0.17675	0.17675
   287	-0.0611938	-0.17675	0.17675
   288	-0.0667445	-0.17675	0.17675
   289	-0.063413	-0.17675	0.17675
   290	-0.0761041	-0.17675	0.17675
   291	-0.0522522	-0.17675	0.17675
   292	-0.0531268	-0.17675	0.17675
   293	-0.0472817	-0.17675	0.17675
   294	-0.0700547	-0.17675	0.17675
   295	-0.0562554	-0.17675	0.17675
   296	-0.0723038	-0.17675	0.17675
   297	-0.0805005	-0.17675	0.17675
   298	-0.0677654	-0.17675	0.17675
   299	-0.0836645	-0.17675	0.17675
   300	-0.0452653	-0.17675	0.17675
   301	-0.0692897	-0.17675	0.17675
   302	-0.035549	-0.17675	0.17675
   303	-0.0579464	-0.17675	0.17675
   304	-0.0543843	-0.17675	0.17675
   305	-0.0373463	-0.17675	0.17675
   306	-0.0444503	-0.17675	0.17675
   307	-0.0570178	-0.17675	0.17675
   308	-0.0588216	-0.17675	0.17675
   309	-0.0752552	-0.17675	0.17675
   310	-0.0627965	-0.17675	0.17675
   311	-0.0581158	-0.17675	0.17675
   312	-0.0727761	-0.17675	0.17675
   313	-0.0793383	-0.17675	0.17675
   314	-0.0852413	-0.17675	0.17675
   315	-0.0677539	-0.17675	0.17675
   316	-0.0685404	-0.17675	0.17675
   317	-0.0363798	-0.17675	0.17675
   318	-0.0695911	-0.17675	0.17675
   319	-0.016178	-0.17675	0.17675
   320	-0.046437	-0.17675	0.17675
   321	-0.0409593	-0.17675	0.17675
   322	-0.0829135	-0.17675	0.17675
   323	-0.066227	-0.17675	0.17675
   324	-0.0613948	-0.17675	0.17675
   325	-0.0735689	-0.17675	0.17675
   326	-0.0505077	-0.17675	0.17675
   327	-0.0846032	-0.17675	0.17675
   328	-0.0843776	-0.17675	0.17675
   329	-0.0822669	-0.17675	0.17675
   330	-0.082629	-0.17675	0.17675
   331	-0.0623013	-0.17675	0.17675
   332	-0.0569737	-0.17675	0.17675
   333	-0.0768267	-0.17675	0.17675
   334	-0.0795044	-0.17675	0.17675
   335	-0.076502	-0.17675	0.17675
   336	-0.0760271	-0.17675	0.17675
   337	-0.0483768	-0.17675	0.17675
   338	-0.0542771	-0.17675	0.17675
   339	-0.036241	-0.17675	0.17675
   340	-0.0333959	-0.17675	0.17675
   341	-0.0821056	-0.17675	0.17675
   342	-0.0516849	-0.17675	0.17675
   343	-0.0668681	-0.17675	0.17675
   344	-0.0567088	-0.17675	0.17675
   345	-0.0485076	-0.17675	0.17675
   346	-0.0839622	-0.17675	0.17675
   347	-0.0649499	-0.17675	0.17675
   348	-0.0779228	-0.17675	0.17675
   349	-0.0163862	-0.17675	0.17675
   350	-0.0772899	-0.17675	0.17675
   351	-0.0805197	-0.17675	0.17675
   352	-0.0603879	-0.17675	0.17675
   353	-0.0767022	-0.17675	0.17675
   354	-0.0722346	-0.17675	0.17675
   355	-0.0770564	-0.17675	0.17675
   356	-0.0644439	-0.17675	0.17675
   357	-0.0838575	-0.17675	0.17675
   358	-0.0845096	-0.17675	0.17675
   359	-0.0788059	-0.17675	0.17675
   360	-0.0689627	-0.17675	0.17675
   361	-0.0238343	-0.17675	0.17675
   362	-0.0508164	-0.17675	0.17675
   363	-0.0523406	-0.17675	0.17675
   364	-0.0594234	-0.17675	0.17675
   365	-0.033455	-0.17675	0.17675
   366	-0.0416253	-0.17675	0.17675
   367	-0.0777926	-0.17675	0.17675
   368	-0.0818812	-0.17675	0.17675
   369	-0.0840316	-0.17675	0.17675
   370	-0.0569253	-0.17675	0.17675
   371	-0.0641947	-0.17675	0.17675
   372	-0.067142	-0.17675	0.17675
   373	-0.0306777	-0.17675	0.17675
   374	-0.0608349	-0.17675	0.17675
   375	-0.0823427	-0.17675	0.17675
   376	-0.0593609	-0.17675	0.17675
   377	-0.0827763	-0.17675	0.17675
   378	-0.0687484	-0.17675	0.17675
   379	-0.01491	-0.17675	0.17675
   380	-0.0786998	-0.17675	0.17675
   381	-0.0729707	-0.17675	0.17675
   382	-0.0318829	-0.17675	0.17675
   383	-0.0430918	-0.17675	0.17675
   384	-0.0828018	-0.17675	0.17675
   385	-0.0836976	-0.17675	0.17675
   386	-0.0562938	-0.17675	0.17675
   387	-0.0836475	-0.17675	0.17675
   388	-0.077363	-0.17675	0.17675
   389	-0.0503346	-0.17675	0.17675
   390	-0.0719132	-0.17675	0.17675
   391	-0.0270594	-0.17675	0.17675
   392	-0.0832956	-0.17675	0.17675
   393	-0.0564945	-0.17675	0.17675
   394	-0.0805354	-0.17675	0.17675
   395	-0.0747134	-0.17675	0.17675
   396	-0.0507655	-0.17675	0.17675
   397	-0.0720436	-0.17675	0.17675
   398	-0.064921	-0.17675	0.17675
   399	-0.0621845	-0.17675	0.17675
   400	-0.0369803	-0.17675	0.17675


Date: Sat Dec  2 20:19:54 2023
Total elapsed time: 14.332 seconds.

tnom = 27
temp = 27
method = trap
totiter = 100
traniter = 0
tranpoints = 0
accept = 0
rejected = 0
matrix size = 33
fillins = 28
solver = Normal
Avg thread counts: 8.0/0.0/8.0/8.0
Matrix Compiler1:     128 opcodes  0.7/[0.4]/0.5
Matrix Compiler2: 2.77 KB object code size  0.3/0.5/[0.2]

