Circuit: * D:\Disco D\universita\magistrale\progettazione-low-power\progetti\progetto-2\ltspice\models\gaussian-vth\read\gaussian_vth_read.asc

WARNING: Node NC_01 is floating.
WARNING: Node NC_02 is floating.
WARNING: Node NC_03 is floating.
WARNING: Node NC_04 is floating.
WARNING: Node NC_05 is floating.

WARNING: Less than two connections to node nc_01.  This node is used by vsweep.
WARNING: Less than two connections to node nc_02.  This node is used by e2.
WARNING: Less than two connections to node nc_03.  This node is used by e8.
WARNING: Less than two connections to node nc_04.  This node is used by m5.
WARNING: Less than two connections to node nc_05.  This node is used by m6.
Warning: Pd = 0 is less than W.
Warning: Ps = 0 is less than W.
Warning: Pd = 0 is less than W.
Warning: Ps = 0 is less than W.
Warning: Pd = 0 is less than W.
Warning: Ps = 0 is less than W.
.step run=1
.step run=2
.step run=3
.step run=4
.step run=5
.step run=6
.step run=7
.step run=8
.step run=9
.step run=10
.step run=11
.step run=12
.step run=13
.step run=14
.step run=15
.step run=16
.step run=17
.step run=18
.step run=19
.step run=20
.step run=21
.step run=22
.step run=23
.step run=24
.step run=25
.step run=26
.step run=27
.step run=28
.step run=29
.step run=30
.step run=31
.step run=32
.step run=33
.step run=34
.step run=35
.step run=36
.step run=37
.step run=38
.step run=39
.step run=40
.step run=41
.step run=42
.step run=43
.step run=44
.step run=45
.step run=46
.step run=47
.step run=48
.step run=49
.step run=50
.step run=51
.step run=52
.step run=53
.step run=54
.step run=55
.step run=56
.step run=57
.step run=58
.step run=59
.step run=60
.step run=61
.step run=62
.step run=63
.step run=64
.step run=65
.step run=66
.step run=67
.step run=68
.step run=69
.step run=70
.step run=71
.step run=72
.step run=73
.step run=74
.step run=75
.step run=76
.step run=77
.step run=78
.step run=79
.step run=80
.step run=81
.step run=82
.step run=83
.step run=84
.step run=85
.step run=86
.step run=87
.step run=88
.step run=89
.step run=90
.step run=91
.step run=92
.step run=93
.step run=94
.step run=95
.step run=96
.step run=97
.step run=98
.step run=99
.step run=100
.step run=101
.step run=102
.step run=103
.step run=104
.step run=105
.step run=106
.step run=107
.step run=108
.step run=109
.step run=110
.step run=111
.step run=112
.step run=113
.step run=114
.step run=115
.step run=116
.step run=117
.step run=118
.step run=119
.step run=120
.step run=121
.step run=122
.step run=123
.step run=124
.step run=125
.step run=126
.step run=127
.step run=128
.step run=129
.step run=130
.step run=131
.step run=132
.step run=133
.step run=134
.step run=135
.step run=136
.step run=137
.step run=138
.step run=139
.step run=140
.step run=141
.step run=142
.step run=143
.step run=144
.step run=145
.step run=146
.step run=147
.step run=148
.step run=149
.step run=150
.step run=151
.step run=152
.step run=153
.step run=154
.step run=155
.step run=156
.step run=157
.step run=158
.step run=159
.step run=160
.step run=161
.step run=162
.step run=163
.step run=164
.step run=165
.step run=166
.step run=167
.step run=168
.step run=169
.step run=170
.step run=171
.step run=172
.step run=173
.step run=174
.step run=175
.step run=176
.step run=177
.step run=178
.step run=179
.step run=180
.step run=181
.step run=182
.step run=183
.step run=184
.step run=185
.step run=186
.step run=187
.step run=188
.step run=189
.step run=190
.step run=191
.step run=192
.step run=193
.step run=194
.step run=195
.step run=196
.step run=197
.step run=198
.step run=199
.step run=200
.step run=201
.step run=202
.step run=203
.step run=204
.step run=205
.step run=206
.step run=207
.step run=208
.step run=209
.step run=210
.step run=211
.step run=212
.step run=213
.step run=214
.step run=215
.step run=216
.step run=217
.step run=218
.step run=219
.step run=220
.step run=221
.step run=222
.step run=223
.step run=224
.step run=225
.step run=226
.step run=227
.step run=228
.step run=229
.step run=230
.step run=231
.step run=232
.step run=233
.step run=234
.step run=235
.step run=236
.step run=237
.step run=238
.step run=239
.step run=240
.step run=241
.step run=242
.step run=243
.step run=244
.step run=245
.step run=246
.step run=247
.step run=248
.step run=249
.step run=250
.step run=251
.step run=252
.step run=253
.step run=254
.step run=255
.step run=256
.step run=257
.step run=258
.step run=259
.step run=260
.step run=261
.step run=262
.step run=263
.step run=264
.step run=265
.step run=266
.step run=267
.step run=268
.step run=269
.step run=270
.step run=271
.step run=272
.step run=273
.step run=274
.step run=275
.step run=276
.step run=277
.step run=278
.step run=279
.step run=280
.step run=281
.step run=282
.step run=283
.step run=284
.step run=285
.step run=286
.step run=287
.step run=288
.step run=289
.step run=290
.step run=291
.step run=292
.step run=293
.step run=294
.step run=295
.step run=296
.step run=297
.step run=298
.step run=299
.step run=300
.step run=301
.step run=302
.step run=303
.step run=304
.step run=305
.step run=306
.step run=307
.step run=308
.step run=309
.step run=310
.step run=311
.step run=312
.step run=313
.step run=314
.step run=315
.step run=316
.step run=317
.step run=318
.step run=319
.step run=320
.step run=321
.step run=322
.step run=323
.step run=324
.step run=325
.step run=326
.step run=327
.step run=328
.step run=329
.step run=330
.step run=331
.step run=332
.step run=333
.step run=334
.step run=335
.step run=336
.step run=337
.step run=338
.step run=339
.step run=340
.step run=341
.step run=342
.step run=343
.step run=344
.step run=345
.step run=346
.step run=347
.step run=348
.step run=349
.step run=350
.step run=351
.step run=352
.step run=353
.step run=354
.step run=355
.step run=356
.step run=357
.step run=358
.step run=359
.step run=360
.step run=361
.step run=362
.step run=363
.step run=364
.step run=365
.step run=366
.step run=367
.step run=368
.step run=369
.step run=370
.step run=371
.step run=372
.step run=373
.step run=374
.step run=375
.step run=376
.step run=377
.step run=378
.step run=379
.step run=380
.step run=381
.step run=382
.step run=383
.step run=384
.step run=385
.step run=386
.step run=387
.step run=388
.step run=389
.step run=390
.step run=391
.step run=392
.step run=393
.step run=394
.step run=395
.step run=396
.step run=397
.step run=398
.step run=399
.step run=400


Measurement: snm_max
  step	MAX(0.707*v(v1)-0.707*v(v2))	FROM	TO
     1	0.0306762	-0.03535	0.03535
     2	0.0227237	-0.03535	0.03535
     3	0.0292345	-0.03535	0.03535
     4	0.0215926	-0.03535	0.03535
     5	0.0127798	-0.03535	0.03535
     6	0.0124917	-0.03535	0.03535
     7	0.0165908	-0.03535	0.03535
     8	0.0300845	-0.03535	0.03535
     9	0.0281634	-0.03535	0.03535
    10	0.0261212	-0.03535	0.03535
    11	0.0307594	-0.03535	0.03535
    12	0.024997	-0.03535	0.03535
    13	0.0218907	-0.03535	0.03535
    14	0.0232168	-0.03535	0.03535
    15	0.0295345	-0.03535	0.03535
    16	0.0261911	-0.03535	0.03535
    17	0.0261677	-0.03535	0.03535
    18	0.0209386	-0.03535	0.03535
    19	0.0197671	-0.03535	0.03535
    20	0.0123812	-0.03535	0.03535
    21	0.0294845	-0.03535	0.03535
    22	0.0253758	-0.03535	0.03535
    23	0.0218527	-0.03535	0.03535
    24	0.0136191	-0.03535	0.03535
    25	0.0109352	-0.03535	0.03535
    26	0.0296844	-0.03535	0.03535
    27	0.0111086	-0.03535	0.03535
    28	0.0306649	-0.03535	0.03535
    29	0.0282859	-0.03535	0.03535
    30	0.027669	-0.03535	0.03535
    31	0.0286403	-0.03535	0.03535
    32	0.025843	-0.03535	0.03535
    33	0.0255615	-0.03535	0.03535
    34	0.0161399	-0.03535	0.03535
    35	0.0198316	-0.03535	0.03535
    36	0.0236163	-0.03535	0.03535
    37	0.0229659	-0.03535	0.03535
    38	0.0222008	-0.03535	0.03535
    39	0.015708	-0.03535	0.03535
    40	0.026608	-0.03535	0.03535
    41	0.0299454	-0.03535	0.03535
    42	0.0284944	-0.03535	0.03535
    43	0.0177942	-0.03535	0.03535
    44	0.018343	-0.03535	0.03535
    45	0.0146898	-0.03535	0.03535
    46	0.0267448	-0.03535	0.03535
    47	0.0269493	-0.03535	0.03535
    48	0.0171831	-0.03535	0.03535
    49	0.0217551	-0.03535	0.03535
    50	0.0308555	-0.03535	0.03535
    51	0.0162804	-0.03535	0.03535
    52	0.0163899	-0.03535	0.03535
    53	0.0264535	-0.03535	0.03535
    54	0.0176826	-0.03535	0.03535
    55	0.0158568	-0.03535	0.03535
    56	0.0112147	-0.03535	0.03535
    57	0.0228975	-0.03535	0.03535
    58	0.0173192	-0.03535	0.03535
    59	0.026919	-0.03535	0.03535
    60	0.0187288	-0.03535	0.03535
    61	0.0232456	-0.03535	0.03535
    62	0.028332	-0.03535	0.03535
    63	0.0303506	-0.03535	0.03535
    64	0.0202505	-0.03535	0.03535
    65	0.0275786	-0.03535	0.03535
    66	0.0123239	-0.03535	0.03535
    67	0.0289461	-0.03535	0.03535
    68	0.0145483	-0.03535	0.03535
    69	0.0291701	-0.03535	0.03535
    70	0.0307507	-0.03535	0.03535
    71	0.01701	-0.03535	0.03535
    72	0.0241026	-0.03535	0.03535
    73	0.0260213	-0.03535	0.03535
    74	0.0255061	-0.03535	0.03535
    75	0.0228731	-0.03535	0.03535
    76	0.0215459	-0.03535	0.03535
    77	0.0215479	-0.03535	0.03535
    78	0.0268547	-0.03535	0.03535
    79	0.0303725	-0.03535	0.03535
    80	0.0239701	-0.03535	0.03535
    81	0.0118784	-0.03535	0.03535
    82	0.0259806	-0.03535	0.03535
    83	0.015648	-0.03535	0.03535
    84	0.0195628	-0.03535	0.03535
    85	0.0205427	-0.03535	0.03535
    86	0.0155886	-0.03535	0.03535
    87	0.0142288	-0.03535	0.03535
    88	0.0176088	-0.03535	0.03535
    89	0.029958	-0.03535	0.03535
    90	0.0141492	-0.03535	0.03535
    91	0.0283477	-0.03535	0.03535
    92	0.0157485	-0.03535	0.03535
    93	0.0190931	-0.03535	0.03535
    94	0.0134858	-0.03535	0.03535
    95	0.0187399	-0.03535	0.03535
    96	0.0234017	-0.03535	0.03535
    97	0.0170699	-0.03535	0.03535
    98	0.0223599	-0.03535	0.03535
    99	0.0272312	-0.03535	0.03535
   100	0.0136927	-0.03535	0.03535
   101	0.020811	-0.03535	0.03535
   102	0.0135282	-0.03535	0.03535
   103	0.0270065	-0.03535	0.03535
   104	0.0128001	-0.03535	0.03535
   105	0.0253616	-0.03535	0.03535
   106	0.0160172	-0.03535	0.03535
   107	0.027726	-0.03535	0.03535
   108	0.0265811	-0.03535	0.03535
   109	0.0304795	-0.03535	0.03535
   110	0.0110837	-0.03535	0.03535
   111	0.0293092	-0.03535	0.03535
   112	0.0309405	-0.03535	0.03535
   113	0.0213462	-0.03535	0.03535
   114	0.0233914	-0.03535	0.03535
   115	0.0215913	-0.03535	0.03535
   116	0.0140797	-0.03535	0.03535
   117	0.0218016	-0.03535	0.03535
   118	0.0203604	-0.03535	0.03535
   119	0.0114936	-0.03535	0.03535
   120	0.0304792	-0.03535	0.03535
   121	0.0206653	-0.03535	0.03535
   122	0.0166743	-0.03535	0.03535
   123	0.0287748	-0.03535	0.03535
   124	0.0286004	-0.03535	0.03535
   125	0.0179921	-0.03535	0.03535
   126	0.0210419	-0.03535	0.03535
   127	0.0115391	-0.03535	0.03535
   128	0.0233537	-0.03535	0.03535
   129	0.0158296	-0.03535	0.03535
   130	0.0166548	-0.03535	0.03535
   131	0.0225735	-0.03535	0.03535
   132	0.0228013	-0.03535	0.03535
   133	0.0108452	-0.03535	0.03535
   134	0.0261523	-0.03535	0.03535
   135	0.0290205	-0.03535	0.03535
   136	0.0147484	-0.03535	0.03535
   137	0.0248027	-0.03535	0.03535
   138	0.0252376	-0.03535	0.03535
   139	0.0291118	-0.03535	0.03535
   140	0.0114495	-0.03535	0.03535
   141	0.0296986	-0.03535	0.03535
   142	0.0113802	-0.03535	0.03535
   143	0.0194245	-0.03535	0.03535
   144	0.0271211	-0.03535	0.03535
   145	0.0111195	-0.03535	0.03535
   146	0.0304871	-0.03535	0.03535
   147	0.0150871	-0.03535	0.03535
   148	0.0182235	-0.03535	0.03535
   149	0.0174296	-0.03535	0.03535
   150	0.0277394	-0.03535	0.03535
   151	0.0199381	-0.03535	0.03535
   152	0.0178686	-0.03535	0.03535
   153	0.0263694	-0.03535	0.03535
   154	0.0120535	-0.03535	0.03535
   155	0.0178512	-0.03535	0.03535
   156	0.0216854	-0.03535	0.03535
   157	0.0254552	-0.03535	0.03535
   158	0.02366	-0.03535	0.03535
   159	0.0178878	-0.03535	0.03535
   160	0.0195595	-0.03535	0.03535
   161	0.0115866	-0.03535	0.03535
   162	0.0274945	-0.03535	0.03535
   163	0.0252225	-0.03535	0.03535
   164	0.029991	-0.03535	0.03535
   165	0.0127629	-0.03535	0.03535
   166	0.0171298	-0.03535	0.03535
   167	0.0306507	-0.03535	0.03535
   168	0.0180661	-0.03535	0.03535
   169	0.0317583	-0.03535	0.03535
   170	0.0226033	-0.03535	0.03535
   171	0.0250556	-0.03535	0.03535
   172	0.0244654	-0.03535	0.03535
   173	0.0257433	-0.03535	0.03535
   174	0.022591	-0.03535	0.03535
   175	0.02752	-0.03535	0.03535
   176	0.0319172	-0.03535	0.03535
   177	0.0255015	-0.03535	0.03535
   178	0.0247575	-0.03535	0.03535
   179	0.021498	-0.03535	0.03535
   180	0.0250447	-0.03535	0.03535
   181	0.0226065	-0.03535	0.03535
   182	0.0212208	-0.03535	0.03535
   183	0.0138279	-0.03535	0.03535
   184	0.0204355	-0.03535	0.03535
   185	0.0291226	-0.03535	0.03535
   186	0.0262378	-0.03535	0.03535
   187	0.0254848	-0.03535	0.03535
   188	0.0206088	-0.03535	0.03535
   189	0.0120982	-0.03535	0.03535
   190	0.0271921	-0.03535	0.03535
   191	0.0213877	-0.03535	0.03535
   192	0.0278529	-0.03535	0.03535
   193	0.0128585	-0.03535	0.03535
   194	0.0290522	-0.03535	0.03535
   195	0.0174724	-0.03535	0.03535
   196	0.0228528	-0.03535	0.03535
   197	0.0291287	-0.03535	0.03535
   198	0.0184125	-0.03535	0.03535
   199	0.0259196	-0.03535	0.03535
   200	0.0147932	-0.03535	0.03535
   201	0.0176352	-0.03535	0.03535
   202	0.0251135	-0.03535	0.03535
   203	0.011941	-0.03535	0.03535
   204	0.0235706	-0.03535	0.03535
   205	0.0202116	-0.03535	0.03535
   206	0.0118667	-0.03535	0.03535
   207	0.0149831	-0.03535	0.03535
   208	0.0207358	-0.03535	0.03535
   209	0.0141849	-0.03535	0.03535
   210	0.0201714	-0.03535	0.03535
   211	0.0135859	-0.03535	0.03535
   212	0.0177308	-0.03535	0.03535
   213	0.0149714	-0.03535	0.03535
   214	0.0112416	-0.03535	0.03535
   215	0.0232479	-0.03535	0.03535
   216	0.0278987	-0.03535	0.03535
   217	0.0293172	-0.03535	0.03535
   218	0.0139444	-0.03535	0.03535
   219	0.0271401	-0.03535	0.03535
   220	0.0111107	-0.03535	0.03535
   221	0.0250831	-0.03535	0.03535
   222	0.0110703	-0.03535	0.03535
   223	0.0238386	-0.03535	0.03535
   224	0.0158255	-0.03535	0.03535
   225	0.0280601	-0.03535	0.03535
   226	0.0302964	-0.03535	0.03535
   227	0.0260508	-0.03535	0.03535
   228	0.0267671	-0.03535	0.03535
   229	0.0264826	-0.03535	0.03535
   230	0.0295205	-0.03535	0.03535
   231	0.0267204	-0.03535	0.03535
   232	0.0265615	-0.03535	0.03535
   233	0.0260667	-0.03535	0.03535
   234	0.0229801	-0.03535	0.03535
   235	0.0175433	-0.03535	0.03535
   236	0.031136	-0.03535	0.03535
   237	0.0303016	-0.03535	0.03535
   238	0.0250122	-0.03535	0.03535
   239	0.0266634	-0.03535	0.03535
   240	0.0230796	-0.03535	0.03535
   241	0.0162814	-0.03535	0.03535
   242	0.0133789	-0.03535	0.03535
   243	0.021855	-0.03535	0.03535
   244	0.0275381	-0.03535	0.03535
   245	0.010871	-0.03535	0.03535
   246	0.0238533	-0.03535	0.03535
   247	0.0165825	-0.03535	0.03535
   248	0.0153735	-0.03535	0.03535
   249	0.0115567	-0.03535	0.03535
   250	0.0141365	-0.03535	0.03535
   251	0.0137683	-0.03535	0.03535
   252	0.0212953	-0.03535	0.03535
   253	0.0212748	-0.03535	0.03535
   254	0.0252861	-0.03535	0.03535
   255	0.0231584	-0.03535	0.03535
   256	0.0270728	-0.03535	0.03535
   257	0.0306266	-0.03535	0.03535
   258	0.0233446	-0.03535	0.03535
   259	0.0250503	-0.03535	0.03535
   260	0.0197454	-0.03535	0.03535
   261	0.0241841	-0.03535	0.03535
   262	0.0127123	-0.03535	0.03535
   263	0.0187866	-0.03535	0.03535
   264	0.0155842	-0.03535	0.03535
   265	0.0295876	-0.03535	0.03535
   266	0.026507	-0.03535	0.03535
   267	0.0281397	-0.03535	0.03535
   268	0.0198049	-0.03535	0.03535
   269	0.0206314	-0.03535	0.03535
   270	0.0289028	-0.03535	0.03535
   271	0.0111461	-0.03535	0.03535
   272	0.01091	-0.03535	0.03535
   273	0.0227671	-0.03535	0.03535
   274	0.0214281	-0.03535	0.03535
   275	0.0162069	-0.03535	0.03535
   276	0.0306729	-0.03535	0.03535
   277	0.0273163	-0.03535	0.03535
   278	0.0201189	-0.03535	0.03535
   279	0.0233588	-0.03535	0.03535
   280	0.0183749	-0.03535	0.03535
   281	0.0181895	-0.03535	0.03535
   282	0.0203151	-0.03535	0.03535
   283	0.0267629	-0.03535	0.03535
   284	0.0169746	-0.03535	0.03535
   285	0.0222992	-0.03535	0.03535
   286	0.0174765	-0.03535	0.03535
   287	0.024297	-0.03535	0.03535
   288	0.0207519	-0.03535	0.03535
   289	0.02335	-0.03535	0.03535
   290	0.0170555	-0.03535	0.03535
   291	0.0266044	-0.03535	0.03535
   292	0.0264486	-0.03535	0.03535
   293	0.0281111	-0.03535	0.03535
   294	0.0203483	-0.03535	0.03535
   295	0.0252634	-0.03535	0.03535
   296	0.0180528	-0.03535	0.03535
   297	0.0142008	-0.03535	0.03535
   298	0.021189	-0.03535	0.03535
   299	0.011914	-0.03535	0.03535
   300	0.0283978	-0.03535	0.03535
   301	0.0207168	-0.03535	0.03535
   302	0.0296884	-0.03535	0.03535
   303	0.0253428	-0.03535	0.03535
   304	0.0265628	-0.03535	0.03535
   305	0.0294832	-0.03535	0.03535
   306	0.0286102	-0.03535	0.03535
   307	0.0256354	-0.03535	0.03535
   308	0.0252739	-0.03535	0.03535
   309	0.0170678	-0.03535	0.03535
   310	0.0235892	-0.03535	0.03535
   311	0.024998	-0.03535	0.03535
   312	0.0183361	-0.03535	0.03535
   313	0.0150724	-0.03535	0.03535
   314	0.010836	-0.03535	0.03535
   315	0.0216339	-0.03535	0.03535
   316	0.0210651	-0.03535	0.03535
   317	0.0296036	-0.03535	0.03535
   318	0.0203677	-0.03535	0.03535
   319	0.0312024	-0.03535	0.03535
   320	0.0282297	-0.03535	0.03535
   321	0.0291333	-0.03535	0.03535
   322	0.011554	-0.03535	0.03535
   323	0.0218231	-0.03535	0.03535
   324	0.0242261	-0.03535	0.03535
   325	0.018843	-0.03535	0.03535
   326	0.0274674	-0.03535	0.03535
   327	0.010965	-0.03535	0.03535
   328	0.0113307	-0.03535	0.03535
   329	0.0132293	-0.03535	0.03535
   330	0.0128853	-0.03535	0.03535
   331	0.0236363	-0.03535	0.03535
   332	0.0252371	-0.03535	0.03535
   333	0.0156357	-0.03535	0.03535
   334	0.0140803	-0.03535	0.03535
   335	0.0171231	-0.03535	0.03535
   336	0.0169811	-0.03535	0.03535
   337	0.0280808	-0.03535	0.03535
   338	0.0262858	-0.03535	0.03535
   339	0.0296139	-0.03535	0.03535
   340	0.0298653	-0.03535	0.03535
   341	0.0133323	-0.03535	0.03535
   342	0.0272814	-0.03535	0.03535
   343	0.0218691	-0.03535	0.03535
   344	0.0258889	-0.03535	0.03535
   345	0.0278046	-0.03535	0.03535
   346	0.0109675	-0.03535	0.03535
   347	0.0229051	-0.03535	0.03535
   348	0.0161866	-0.03535	0.03535
   349	0.0308216	-0.03535	0.03535
   350	0.0153147	-0.03535	0.03535
   351	0.0136564	-0.03535	0.03535
   352	0.0242272	-0.03535	0.03535
   353	0.0165895	-0.03535	0.03535
   354	0.019056	-0.03535	0.03535
   355	0.0155716	-0.03535	0.03535
   356	0.0222048	-0.03535	0.03535
   357	0.0109807	-0.03535	0.03535
   358	0.0110136	-0.03535	0.03535
   359	0.0153844	-0.03535	0.03535
   360	0.0205389	-0.03535	0.03535
   361	0.0307855	-0.03535	0.03535
   362	0.0272965	-0.03535	0.03535
   363	0.0270976	-0.03535	0.03535
   364	0.0251665	-0.03535	0.03535
   365	0.0298666	-0.03535	0.03535
   366	0.0289941	-0.03535	0.03535
   367	0.0158029	-0.03535	0.03535
   368	0.0126271	-0.03535	0.03535
   369	0.0112569	-0.03535	0.03535
   370	0.0256386	-0.03535	0.03535
   371	0.0223775	-0.03535	0.03535
   372	0.0212354	-0.03535	0.03535
   373	0.0301104	-0.03535	0.03535
   374	0.0246882	-0.03535	0.03535
   375	0.0121858	-0.03535	0.03535
   376	0.0247772	-0.03535	0.03535
   377	0.0121342	-0.03535	0.03535
   378	0.0211798	-0.03535	0.03535
   379	0.0310441	-0.03535	0.03535
   380	0.0151285	-0.03535	0.03535
   381	0.0192352	-0.03535	0.03535
   382	0.0300204	-0.03535	0.03535
   383	0.0287044	-0.03535	0.03535
   384	0.0113019	-0.03535	0.03535
   385	0.011884	-0.03535	0.03535
   386	0.0258635	-0.03535	0.03535
   387	0.0116953	-0.03535	0.03535
   388	0.0167181	-0.03535	0.03535
   389	0.0274422	-0.03535	0.03535
   390	0.0196631	-0.03535	0.03535
   391	0.0305607	-0.03535	0.03535
   392	0.0117355	-0.03535	0.03535
   393	0.025638	-0.03535	0.03535
   394	0.0131205	-0.03535	0.03535
   395	0.0180472	-0.03535	0.03535
   396	0.0271293	-0.03535	0.03535
   397	0.0199038	-0.03535	0.03535
   398	0.0225448	-0.03535	0.03535
   399	0.0237634	-0.03535	0.03535
   400	0.0295412	-0.03535	0.03535

Measurement: snm_min
  step	MIN(0.707*v(v1)-0.707*v(v2))	FROM	TO
     1	-0.0306749	-0.03535	0.03535
     2	-0.0227214	-0.03535	0.03535
     3	-0.029233	-0.03535	0.03535
     4	-0.0215901	-0.03535	0.03535
     5	-0.0127798	-0.03535	0.03535
     6	-0.0124917	-0.03535	0.03535
     7	-0.0165836	-0.03535	0.03535
     8	-0.0300834	-0.03535	0.03535
     9	-0.0281621	-0.03535	0.03535
    10	-0.0261196	-0.03535	0.03535
    11	-0.0307582	-0.03535	0.03535
    12	-0.0249953	-0.03535	0.03535
    13	-0.0218884	-0.03535	0.03535
    14	-0.0232147	-0.03535	0.03535
    15	-0.0295331	-0.03535	0.03535
    16	-0.0261895	-0.03535	0.03535
    17	-0.026166	-0.03535	0.03535
    18	-0.0209358	-0.03535	0.03535
    19	-0.0197635	-0.03535	0.03535
    20	-0.0123812	-0.03535	0.03535
    21	-0.0294831	-0.03535	0.03535
    22	-0.0253741	-0.03535	0.03535
    23	-0.0218503	-0.03535	0.03535
    24	-0.0136191	-0.03535	0.03535
    25	-0.0109352	-0.03535	0.03535
    26	-0.029683	-0.03535	0.03535
    27	-0.0111086	-0.03535	0.03535
    28	-0.0306638	-0.03535	0.03535
    29	-0.0282845	-0.03535	0.03535
    30	-0.0276675	-0.03535	0.03535
    31	-0.0286388	-0.03535	0.03535
    32	-0.0258414	-0.03535	0.03535
    33	-0.0255597	-0.03535	0.03535
    34	-0.016132	-0.03535	0.03535
    35	-0.0198282	-0.03535	0.03535
    36	-0.0236143	-0.03535	0.03535
    37	-0.0229638	-0.03535	0.03535
    38	-0.0221985	-0.03535	0.03535
    39	-0.0156994	-0.03535	0.03535
    40	-0.0266065	-0.03535	0.03535
    41	-0.0299441	-0.03535	0.03535
    42	-0.0284929	-0.03535	0.03535
    43	-0.0177887	-0.03535	0.03535
    44	-0.0183384	-0.03535	0.03535
    45	-0.0146789	-0.03535	0.03535
    46	-0.0267432	-0.03535	0.03535
    47	-0.0269478	-0.03535	0.03535
    48	-0.0171776	-0.03535	0.03535
    49	-0.0217526	-0.03535	0.03535
    50	-0.0308544	-0.03535	0.03535
    51	-0.0162726	-0.03535	0.03535
    52	-0.0163821	-0.03535	0.03535
    53	-0.0264519	-0.03535	0.03535
    54	-0.0176768	-0.03535	0.03535
    55	-0.0158481	-0.03535	0.03535
    56	-0.0112147	-0.03535	0.03535
    57	-0.0228954	-0.03535	0.03535
    58	-0.017313	-0.03535	0.03535
    59	-0.0269177	-0.03535	0.03535
    60	-0.0187245	-0.03535	0.03535
    61	-0.0232436	-0.03535	0.03535
    62	-0.0283305	-0.03535	0.03535
    63	-0.0303494	-0.03535	0.03535
    64	-0.0202474	-0.03535	0.03535
    65	-0.0275772	-0.03535	0.03535
    66	-0.0123239	-0.03535	0.03535
    67	-0.0289446	-0.03535	0.03535
    68	-0.014537	-0.03535	0.03535
    69	-0.0291686	-0.03535	0.03535
    70	-0.0307496	-0.03535	0.03535
    71	-0.0170037	-0.03535	0.03535
    72	-0.0241007	-0.03535	0.03535
    73	-0.0260196	-0.03535	0.03535
    74	-0.0255043	-0.03535	0.03535
    75	-0.0228711	-0.03535	0.03535
    76	-0.0215433	-0.03535	0.03535
    77	-0.0215453	-0.03535	0.03535
    78	-0.0268533	-0.03535	0.03535
    79	-0.0303713	-0.03535	0.03535
    80	-0.0239682	-0.03535	0.03535
    81	-0.0118784	-0.03535	0.03535
    82	-0.0259788	-0.03535	0.03535
    83	-0.0156391	-0.03535	0.03535
    84	-0.019559	-0.03535	0.03535
    85	-0.0205397	-0.03535	0.03535
    86	-0.0155795	-0.03535	0.03535
    87	-0.0142163	-0.03535	0.03535
    88	-0.0176031	-0.03535	0.03535
    89	-0.0299568	-0.03535	0.03535
    90	-0.0141366	-0.03535	0.03535
    91	-0.0283464	-0.03535	0.03535
    92	-0.0157399	-0.03535	0.03535
    93	-0.0190889	-0.03535	0.03535
    94	-0.0134858	-0.03535	0.03535
    95	-0.0187353	-0.03535	0.03535
    96	-0.0233997	-0.03535	0.03535
    97	-0.0170635	-0.03535	0.03535
    98	-0.0223577	-0.03535	0.03535
    99	-0.0272297	-0.03535	0.03535
   100	-0.0136927	-0.03535	0.03535
   101	-0.0208081	-0.03535	0.03535
   102	-0.0135282	-0.03535	0.03535
   103	-0.0270049	-0.03535	0.03535
   104	-0.0128001	-0.03535	0.03535
   105	-0.0253598	-0.03535	0.03535
   106	-0.0160094	-0.03535	0.03535
   107	-0.0277246	-0.03535	0.03535
   108	-0.0265795	-0.03535	0.03535
   109	-0.0304782	-0.03535	0.03535
   110	-0.0110837	-0.03535	0.03535
   111	-0.0293079	-0.03535	0.03535
   112	-0.0309393	-0.03535	0.03535
   113	-0.0213435	-0.03535	0.03535
   114	-0.0233894	-0.03535	0.03535
   115	-0.0215889	-0.03535	0.03535
   116	-0.0140797	-0.03535	0.03535
   117	-0.0217991	-0.03535	0.03535
   118	-0.0203574	-0.03535	0.03535
   119	-0.0114936	-0.03535	0.03535
   120	-0.0304779	-0.03535	0.03535
   121	-0.0206623	-0.03535	0.03535
   122	-0.0166674	-0.03535	0.03535
   123	-0.0287734	-0.03535	0.03535
   124	-0.0285989	-0.03535	0.03535
   125	-0.0179868	-0.03535	0.03535
   126	-0.021039	-0.03535	0.03535
   127	-0.011539	-0.03535	0.03535
   128	-0.0233517	-0.03535	0.03535
   129	-0.0158209	-0.03535	0.03535
   130	-0.0166478	-0.03535	0.03535
   131	-0.0225715	-0.03535	0.03535
   132	-0.0227991	-0.03535	0.03535
   133	-0.0108451	-0.03535	0.03535
   134	-0.0261506	-0.03535	0.03535
   135	-0.0290191	-0.03535	0.03535
   136	-0.0147372	-0.03535	0.03535
   137	-0.024801	-0.03535	0.03535
   138	-0.0252358	-0.03535	0.03535
   139	-0.0291105	-0.03535	0.03535
   140	-0.0114495	-0.03535	0.03535
   141	-0.0296972	-0.03535	0.03535
   142	-0.0113802	-0.03535	0.03535
   143	-0.0194206	-0.03535	0.03535
   144	-0.0271195	-0.03535	0.03535
   145	-0.0111195	-0.03535	0.03535
   146	-0.0304858	-0.03535	0.03535
   147	-0.0150771	-0.03535	0.03535
   148	-0.0182185	-0.03535	0.03535
   149	-0.0174237	-0.03535	0.03535
   150	-0.0277379	-0.03535	0.03535
   151	-0.0199346	-0.03535	0.03535
   152	-0.0178631	-0.03535	0.03535
   153	-0.0263678	-0.03535	0.03535
   154	-0.0120535	-0.03535	0.03535
   155	-0.0178459	-0.03535	0.03535
   156	-0.0216829	-0.03535	0.03535
   157	-0.0254535	-0.03535	0.03535
   158	-0.023658	-0.03535	0.03535
   159	-0.0178824	-0.03535	0.03535
   160	-0.0195558	-0.03535	0.03535
   161	-0.0115866	-0.03535	0.03535
   162	-0.0274931	-0.03535	0.03535
   163	-0.0252207	-0.03535	0.03535
   164	-0.0299897	-0.03535	0.03535
   165	-0.0127629	-0.03535	0.03535
   166	-0.0171234	-0.03535	0.03535
   167	-0.0306494	-0.03535	0.03535
   168	-0.0180609	-0.03535	0.03535
   169	-0.0317576	-0.03535	0.03535
   170	-0.0226012	-0.03535	0.03535
   171	-0.0250539	-0.03535	0.03535
   172	-0.0244634	-0.03535	0.03535
   173	-0.0257417	-0.03535	0.03535
   174	-0.0225889	-0.03535	0.03535
   175	-0.0275186	-0.03535	0.03535
   176	-0.0319172	-0.03535	0.03535
   177	-0.0254999	-0.03535	0.03535
   178	-0.0247557	-0.03535	0.03535
   179	-0.0214954	-0.03535	0.03535
   180	-0.025043	-0.03535	0.03535
   181	-0.0226042	-0.03535	0.03535
   182	-0.0212182	-0.03535	0.03535
   183	-0.0138279	-0.03535	0.03535
   184	-0.0204323	-0.03535	0.03535
   185	-0.0291212	-0.03535	0.03535
   186	-0.0262363	-0.03535	0.03535
   187	-0.0254833	-0.03535	0.03535
   188	-0.0206057	-0.03535	0.03535
   189	-0.0120982	-0.03535	0.03535
   190	-0.0271906	-0.03535	0.03535
   191	-0.021385	-0.03535	0.03535
   192	-0.0278515	-0.03535	0.03535
   193	-0.0128585	-0.03535	0.03535
   194	-0.0290509	-0.03535	0.03535
   195	-0.0174665	-0.03535	0.03535
   196	-0.0228507	-0.03535	0.03535
   197	-0.0291273	-0.03535	0.03535
   198	-0.018408	-0.03535	0.03535
   199	-0.0259179	-0.03535	0.03535
   200	-0.0147824	-0.03535	0.03535
   201	-0.0176297	-0.03535	0.03535
   202	-0.0251117	-0.03535	0.03535
   203	-0.011941	-0.03535	0.03535
   204	-0.0235687	-0.03535	0.03535
   205	-0.0202082	-0.03535	0.03535
   206	-0.0118667	-0.03535	0.03535
   207	-0.0149732	-0.03535	0.03535
   208	-0.0207329	-0.03535	0.03535
   209	-0.0141722	-0.03535	0.03535
   210	-0.0201681	-0.03535	0.03535
   211	-0.0135859	-0.03535	0.03535
   212	-0.0177253	-0.03535	0.03535
   213	-0.014961	-0.03535	0.03535
   214	-0.0112415	-0.03535	0.03535
   215	-0.0232459	-0.03535	0.03535
   216	-0.0278972	-0.03535	0.03535
   217	-0.0293158	-0.03535	0.03535
   218	-0.0139315	-0.03535	0.03535
   219	-0.0271385	-0.03535	0.03535
   220	-0.0111107	-0.03535	0.03535
   221	-0.0250812	-0.03535	0.03535
   222	-0.0110703	-0.03535	0.03535
   223	-0.0238369	-0.03535	0.03535
   224	-0.0158168	-0.03535	0.03535
   225	-0.0280587	-0.03535	0.03535
   226	-0.030295	-0.03535	0.03535
   227	-0.0260493	-0.03535	0.03535
   228	-0.0267656	-0.03535	0.03535
   229	-0.0264811	-0.03535	0.03535
   230	-0.0295193	-0.03535	0.03535
   231	-0.0267188	-0.03535	0.03535
   232	-0.0265599	-0.03535	0.03535
   233	-0.026065	-0.03535	0.03535
   234	-0.0229781	-0.03535	0.03535
   235	-0.0175375	-0.03535	0.03535
   236	-0.0311349	-0.03535	0.03535
   237	-0.0303004	-0.03535	0.03535
   238	-0.0250104	-0.03535	0.03535
   239	-0.0266617	-0.03535	0.03535
   240	-0.0230775	-0.03535	0.03535
   241	-0.0162737	-0.03535	0.03535
   242	-0.0133789	-0.03535	0.03535
   243	-0.0218525	-0.03535	0.03535
   244	-0.0275366	-0.03535	0.03535
   245	-0.010871	-0.03535	0.03535
   246	-0.0238515	-0.03535	0.03535
   247	-0.0165754	-0.03535	0.03535
   248	-0.015364	-0.03535	0.03535
   249	-0.0115567	-0.03535	0.03535
   250	-0.0141237	-0.03535	0.03535
   251	-0.0137683	-0.03535	0.03535
   252	-0.0212926	-0.03535	0.03535
   253	-0.0212721	-0.03535	0.03535
   254	-0.0252845	-0.03535	0.03535
   255	-0.0231563	-0.03535	0.03535
   256	-0.0270712	-0.03535	0.03535
   257	-0.0306254	-0.03535	0.03535
   258	-0.0233427	-0.03535	0.03535
   259	-0.0250485	-0.03535	0.03535
   260	-0.0197418	-0.03535	0.03535
   261	-0.0241822	-0.03535	0.03535
   262	-0.0127123	-0.03535	0.03535
   263	-0.0187821	-0.03535	0.03535
   264	-0.0155754	-0.03535	0.03535
   265	-0.0295864	-0.03535	0.03535
   266	-0.0265055	-0.03535	0.03535
   267	-0.0281383	-0.03535	0.03535
   268	-0.0198015	-0.03535	0.03535
   269	-0.0206285	-0.03535	0.03535
   270	-0.0289015	-0.03535	0.03535
   271	-0.0111461	-0.03535	0.03535
   272	-0.01091	-0.03535	0.03535
   273	-0.0227648	-0.03535	0.03535
   274	-0.0214256	-0.03535	0.03535
   275	-0.016199	-0.03535	0.03535
   276	-0.0306717	-0.03535	0.03535
   277	-0.0273148	-0.03535	0.03535
   278	-0.0201156	-0.03535	0.03535
   279	-0.0233569	-0.03535	0.03535
   280	-0.01837	-0.03535	0.03535
   281	-0.0181845	-0.03535	0.03535
   282	-0.0203118	-0.03535	0.03535
   283	-0.0267614	-0.03535	0.03535
   284	-0.0169682	-0.03535	0.03535
   285	-0.022297	-0.03535	0.03535
   286	-0.0174707	-0.03535	0.03535
   287	-0.0242951	-0.03535	0.03535
   288	-0.0207492	-0.03535	0.03535
   289	-0.023348	-0.03535	0.03535
   290	-0.017049	-0.03535	0.03535
   291	-0.026603	-0.03535	0.03535
   292	-0.0264471	-0.03535	0.03535
   293	-0.0281096	-0.03535	0.03535
   294	-0.0203451	-0.03535	0.03535
   295	-0.0252619	-0.03535	0.03535
   296	-0.018048	-0.03535	0.03535
   297	-0.0142008	-0.03535	0.03535
   298	-0.0211863	-0.03535	0.03535
   299	-0.011914	-0.03535	0.03535
   300	-0.0283965	-0.03535	0.03535
   301	-0.0207138	-0.03535	0.03535
   302	-0.0296872	-0.03535	0.03535
   303	-0.0253411	-0.03535	0.03535
   304	-0.0265612	-0.03535	0.03535
   305	-0.029482	-0.03535	0.03535
   306	-0.0286088	-0.03535	0.03535
   307	-0.0256337	-0.03535	0.03535
   308	-0.0252722	-0.03535	0.03535
   309	-0.0170615	-0.03535	0.03535
   310	-0.0235872	-0.03535	0.03535
   311	-0.0249964	-0.03535	0.03535
   312	-0.0183314	-0.03535	0.03535
   313	-0.0150621	-0.03535	0.03535
   314	-0.010836	-0.03535	0.03535
   315	-0.0216314	-0.03535	0.03535
   316	-0.0210623	-0.03535	0.03535
   317	-0.0296023	-0.03535	0.03535
   318	-0.0203646	-0.03535	0.03535
   319	-0.0312014	-0.03535	0.03535
   320	-0.0282283	-0.03535	0.03535
   321	-0.0291318	-0.03535	0.03535
   322	-0.011554	-0.03535	0.03535
   323	-0.0218207	-0.03535	0.03535
   324	-0.0242242	-0.03535	0.03535
   325	-0.0188386	-0.03535	0.03535
   326	-0.0274659	-0.03535	0.03535
   327	-0.010965	-0.03535	0.03535
   328	-0.0113307	-0.03535	0.03535
   329	-0.0132293	-0.03535	0.03535
   330	-0.0128853	-0.03535	0.03535
   331	-0.0236344	-0.03535	0.03535
   332	-0.0252355	-0.03535	0.03535
   333	-0.0156272	-0.03535	0.03535
   334	-0.014068	-0.03535	0.03535
   335	-0.0171166	-0.03535	0.03535
   336	-0.0169745	-0.03535	0.03535
   337	-0.0280792	-0.03535	0.03535
   338	-0.0262842	-0.03535	0.03535
   339	-0.0296127	-0.03535	0.03535
   340	-0.0298639	-0.03535	0.03535
   341	-0.0133323	-0.03535	0.03535
   342	-0.0272798	-0.03535	0.03535
   343	-0.0218667	-0.03535	0.03535
   344	-0.0258872	-0.03535	0.03535
   345	-0.0278031	-0.03535	0.03535
   346	-0.0109675	-0.03535	0.03535
   347	-0.0229029	-0.03535	0.03535
   348	-0.0161866	-0.03535	0.03535
   349	-0.0308203	-0.03535	0.03535
   350	-0.0153056	-0.03535	0.03535
   351	-0.0136564	-0.03535	0.03535
   352	-0.0242254	-0.03535	0.03535
   353	-0.0165823	-0.03535	0.03535
   354	-0.0190519	-0.03535	0.03535
   355	-0.0155629	-0.03535	0.03535
   356	-0.0222026	-0.03535	0.03535
   357	-0.0109807	-0.03535	0.03535
   358	-0.0110136	-0.03535	0.03535
   359	-0.0153748	-0.03535	0.03535
   360	-0.0205359	-0.03535	0.03535
   361	-0.0307846	-0.03535	0.03535
   362	-0.027295	-0.03535	0.03535
   363	-0.027096	-0.03535	0.03535
   364	-0.0251647	-0.03535	0.03535
   365	-0.0298652	-0.03535	0.03535
   366	-0.0289928	-0.03535	0.03535
   367	-0.0157943	-0.03535	0.03535
   368	-0.0126271	-0.03535	0.03535
   369	-0.0112569	-0.03535	0.03535
   370	-0.025637	-0.03535	0.03535
   371	-0.0223754	-0.03535	0.03535
   372	-0.0212328	-0.03535	0.03535
   373	-0.0301092	-0.03535	0.03535
   374	-0.0246863	-0.03535	0.03535
   375	-0.0121858	-0.03535	0.03535
   376	-0.0247754	-0.03535	0.03535
   377	-0.0121342	-0.03535	0.03535
   378	-0.021177	-0.03535	0.03535
   379	-0.0310431	-0.03535	0.03535
   380	-0.0151185	-0.03535	0.03535
   381	-0.0192312	-0.03535	0.03535
   382	-0.0300192	-0.03535	0.03535
   383	-0.0287031	-0.03535	0.03535
   384	-0.0113019	-0.03535	0.03535
   385	-0.011884	-0.03535	0.03535
   386	-0.0258618	-0.03535	0.03535
   387	-0.0116953	-0.03535	0.03535
   388	-0.0167109	-0.03535	0.03535
   389	-0.0274407	-0.03535	0.03535
   390	-0.0196594	-0.03535	0.03535
   391	-0.0305598	-0.03535	0.03535
   392	-0.0117355	-0.03535	0.03535
   393	-0.0256364	-0.03535	0.03535
   394	-0.0131205	-0.03535	0.03535
   395	-0.018042	-0.03535	0.03535
   396	-0.027128	-0.03535	0.03535
   397	-0.0199002	-0.03535	0.03535
   398	-0.0225426	-0.03535	0.03535
   399	-0.0237615	-0.03535	0.03535
   400	-0.0295399	-0.03535	0.03535


Date: Wed Dec 13 19:13:06 2023
Total elapsed time: 7.205 seconds.

tnom = 27
temp = 27
method = trap
totiter = 27
traniter = 0
tranpoints = 0
accept = 0
rejected = 0
matrix size = 33
fillins = 28
solver = Normal
Avg thread counts: 8.0/0.0/8.0/8.0
Matrix Compiler1: 2.14 KB object code size
Matrix Compiler2: 2.78 KB object code size
